8
REF_energy=-445.6854050421662237 charge=-1 Properties=species:S:1:pos:R:3:REF_forces:R:3
Na	5.0841181844188688	5.0048666703049252	3.5449745426191632	0.0000028102602863	-0.0000067930198595	-0.0000367607542600
Na	1.8637422961118546	4.5078894056205350	-1.7649450883295763	0.0000189717247069	-0.0000035066270132	-0.0000112234940632
Na	1.3490570575072640	2.2185921718169905	0.9914128450602695	0.0000159175809449	0.0000101035447809	0.0000244099513586
Na	5.0106809586311760	4.7205207521011250	0.0130363231926016	0.0000052424607647	-0.0000089913762181	-0.0000043915329430
Na	4.6673105655078517	1.8255970250262374	1.8582985345971019	-0.0000114746765222	0.0000161585549464	-0.0000005086192458
Na	3.8398340586415118	1.6853238392551220	-1.5825883012803208	0.0000010498620614	0.0000173573634200	-0.0000052808583845
Na	2.3012006484341696	3.1043695491004293	4.2831955238941770	-0.0000236728839655	-0.0000055984939929	0.0000146586664490
Na	2.0663045019899369	5.5396278006708393	1.6162210634776273	-0.0000088443282766	-0.0000187299460636	0.0000190966410889
8
REF_energy=-445.6158155967925154 charge=-1 Properties=species:S:1:pos:R:3:REF_forces:R:3
Na	4.1868715734149724	3.0034723825141807	2.6465699910894562	-0.0000242449273881	-0.0000287888574250	0.0000753186005407
Na	1.9599309336961934	1.6083053740642339	0.0632468495446139	0.0000158152261423	0.0000304310754855	0.0000601817490715
Na	2.6134579238552540	6.5198900929892005	2.9076870110057049	-0.0000133618183134	-0.0000398562984089	-0.0000090216267332
Na	5.3005196035271220	5.7538199209528189	0.8536869584003496	0.0000439832884669	-0.0000742020675605	0.0000198432675473
Na	4.7777185273563489	3.0536103331607789	-1.1788368570327747	-0.0000229692946093	-0.0000332884457006	-0.0001804624401995
Na	0.7347199113486220	3.6616223420494269	2.4890507753418500	-0.0000458367825943	0.0000374555357057	-0.0000631405334096
Na	5.1447954517982168	0.0660645934774758	0.7374230097081779	0.0000575520799805	0.0000958807609243	0.0000295480020433
Na	2.0373373017349916	5.1015771099450733	-0.4909437243285686	-0.0000109377716846	0.0000123682969796	0.0000677329811396
8
REF_energy=-445.6070200427045620 charge=-1 Properties=species:S:1:pos:R:3:REF_forces:R:3
Na	7.2979545752867789	3.5803155911481639	1.9109736178056811	0.0000515804067852	-0.0000045805687273	-0.0000515524084921
Na	1.1486029189425071	3.3677017759055543	-2.3560138335170988	-0.0000531116135857	0.0000150780386642	0.0000833936820925
Na	1.6066650018625572	1.6970557338439016	0.6727840280566151	0.0000736898910298	-0.0000444708240428	0.0000061159810719
Na	4.4865579149672481	5.6171925563735083	2.2559142040845974	-0.0000123623360295	-0.0000212841077801	0.0000265522593663
Na	4.3835578295062207	1.7909726239691286	2.5939640531825656	-0.0000843150159014	0.0000490195087089	0.0000070301824734
Na	4.4641073532896280	3.4365298525712382	-0.5676643886933717	0.0000433886002727	-0.0000082947471387	0.0000399189398854
Na	1.6609255379962216	3.8709200805359427	3.4599591015727311	-0.0000392262933906	-0.0000059418277412	-0.0001246824324145
Na	1.7128891314467647	5.5175821501663274	0.3324821970998154	0.0000203563608195	0.0000204745280569	0.0000132237960171
8
REF_energy=-445.5941097063060852 charge=-1 Properties=species:S:1:pos:R:3:REF_forces:R:3
Na	2.1446117552158022	2.1446117551220678	3.1436242649299198	0.0000872754118175	0.0000872755216417	0.0000060242275862
Na	5.4625179638055563	2.7953069011940670	2.5749978852997550	-0.0000741582769881	-0.0000386678279849	0.0000220710693977
Na	2.7953069004925317	5.4625179639042534	2.5749978845091808	-0.0000386678873768	-0.0000741582977924	0.0000220712163287
Na	6.2091768145660495	6.2091768151298066	2.0435669727475161	-0.0000117362569294	-0.0000117363464493	-0.0000578490720665
Na	4.5680782877580137	4.5680782882973308	-0.6258673156195539	0.0000376799160852	0.0000376797964041	-0.0000347000663930
Na	1.2501235358184515	3.9140906948779914	-0.0628355981485816	0.0000099905151868	-0.0000186146339014	0.0000581639387807
Na	3.9140906953090386	1.2501235357850182	-0.0628355978759376	-0.0000186144902592	0.0000099907137857	0.0000581639597911
Na	0.5013348188050473	0.5013348174599660	0.4813112428891826	0.0000082310684641	0.0000082310742966	-0.0000739452734249
8
REF_energy=-445.5878749377483246 charge=-1 Properties=species:S:1:pos:R:3:REF_forces:R:3
Na	19.0235606865461300	5.9895716934310537	0.9287579361303250	0.0000721788635778	0.0000977986588463	0.0001130994167846
Na	15.7787742759432401	4.7627744769637550	0.7988226584590465	0.0000601178941160	-0.0000622075378225	-0.0000579470143192
Na	16.3680007502179414	8.2647678381945404	-0.0924384418293687	-0.0000031796236743	-0.0000688119452711	0.0000560171546441
Na	19.7089430301110120	9.0124414980724961	-0.5184414034474709	0.0000209335483723	-0.0000965840994398	0.0000408654107467
Na	17.5680625044564316	8.6669506615703522	-3.3033197995225128	-0.0000491628903817	-0.0000355190438668	-0.0001197870602021
Na	21.1266657133674371	8.5617149757569830	-3.7848725984753493	0.0000599093644412	0.0000088632595633	-0.0000797673305535
Na	16.3434619241869292	5.5671518205960764	-2.5320070367415983	0.0000060951020603	0.0001306566681548	-0.0000922733093374
Na	19.7637786709539611	5.6572150894347368	-2.3963168395062704	-0.0001668922585116	0.0000258040398359	0.0001397927322368
8
REF_energy=-445.4939860538104881 charge=-1 Properties=species:S:1:pos:R:3:REF_forces:R:3
Na	17.5551837121444940	1.4858458137612602	1.1761004536748823	-0.0000725837548646	-0.0001631340520665	-0.0003003720687044
Na	20.2484371797017850	2.3534668095475526	3.3500061448523168	-0.0002965981652599	0.0000087991140724	0.0001982574223350
Na	22.2152448633209119	2.9958262905410313	-1.9619767714784584	-0.0001123571603553	0.0000149163168027	0.0000641844637897
Na	20.1050361913235101	-0.9771769622024324	1.5382977623522134	0.0000560451247457	0.0002117285508494	-0.0001870802696064
Na	19.8345128355117453	3.9918303914809967	0.3538534553641956	0.0000261574031441	-0.0001601415417410	0.0002849941635868
Na	22.6102191693242709	1.3353818053007414	1.0686919673347617	0.0001159683468905	0.0005113729117516	0.0002359523433676
Na	19.6896372140696130	0.6730749487167718	-1.4506013079687339	0.0001875202155890	0.0000180890234135	0.0001472872211281
Na	25.4697977826688735	2.1712812450670209	-0.8768529047610423	0.0000958479901105	-0.0004416303230822	-0.0004432232758963
8
REF_energy=-445.2401577326228335 charge=-1 Properties=species:S:1:pos:R:3:REF_forces:R:3
Na	1.5629163950421272	6.0560622722571296	6.9537767311868262	0.0000999687397102	0.0001009163628769	0.0005880951507156
Na	1.9985363979230382	2.8751383904081016	6.0554787926196729	-0.0002774514394547	0.0004451470559618	0.0001424481809660
Na	3.2812739153271848	-2.9992053480761931	6.3522767863035314	-0.0000914762742746	0.0006413385425016	-0.0002461863188996
Na	2.2695572130790609	-2.5239992435808944	2.8508170738423182	0.0001163120897214	-0.0006423362287286	-0.0001172857352653
Na	3.9892475229008366	0.1315416560373503	4.6652329233531544	-0.0001881484415416	-0.0000791077445680	-0.0004417383933027
Na	0.2260378045422699	-4.0811554050562444	5.1508273523944128	-0.0000194645952733	0.0000899201927551	0.0002774481477090
Na	5.5626938089186604	-2.9896269825010577	3.7558348882369947	0.0001497156708185	-0.0003521217235035	0.0002571968155346
Na	0.7640857335467368	-0.5287131194802599	5.5083027056846783	0.0002105442502943	-0.0002037564572954	-0.0004599778474577
8
REF_energy=-445.2259154957649230 charge=-1 Properties=species:S:1:pos:R:3:REF_forces:R:3
Na	7.2664378523273667	4.0369969262138747	-1.0543541556207541	-0.0000171314847614	-0.0002024261833703	-0.0000718339129768
Na	1.2195490609154258	4.3730485143942621	-1.5517447452253237	-0.0001101965447263	0.0001376842101757	-0.0000222322121206
Na	0.3893497921930650	3.5156556728019961	1.8020240904026299	0.0000923117598925	-0.0002353821884120	0.0000441755309690
Na	3.2665095463479656	2.8261432076356487	3.9705703784705157	0.0000390658618467	0.0001392223205656	0.0001125014175074
Na	6.4581351253149428	3.1357591636894111	2.4087455825075126	-0.0000472925775668	0.0000909606472236	0.0000572537598481
Na	3.8658937271909859	3.7677461451554342	0.3978047432405573	0.0002082327033050	-0.0001158939609448	0.0000805492804140
Na	-0.0201548110819424	2.6290633436397313	5.1646551561254164	-0.0001323435218469	0.0000049234258421	-0.0000636084586768
Na	4.5336825736426691	4.6742930318326552	-3.1201526088452227	-0.0000326461961428	0.0001809117289201	-0.0001368054049644
8
REF_energy=-445.2072910177836889 charge=-1 Properties=species:S:1:pos:R:3:REF_forces:R:3
Na	4.2893542094756230	0.3792973776591456	0.7728281651642535	-0.0000173657066593	0.0001316128852142	0.0003793645367544
Na	1.0427174815427320	2.1300547062520794	0.9325553367583619	-0.0004041466105636	-0.0002049103517121	-0.0002914041485928
Na	6.6049598930695153	3.0526408217157335	1.4008998863106967	-0.0000419622934066	-0.0000958336989726	-0.0002897038377001
Na	1.5668926046118454	5.6743511569508511	1.5020578367659017	0.0000567736578256	0.0003984741854530	-0.0000301669693537
Na	3.5892399112128381	3.2762058195451962	2.9051783120641490	0.0001450397906257	0.0000416160972953	0.0004169906475982
Na	5.1667310240593851	6.2926985300843352	1.3265234936131425	-0.0001677611575261	-0.0000796399148282	-0.0003941037009003
Na	1.4689559039114741	-0.7598321425920084	-1.0256953049622144	0.0003347136684051	0.0001514990116302	-0.0000895728711161
Na	2.8415222760874017	8.8352096573071304	0.5096852613112649	0.0000947086512993	-0.0003428182140800	0.0002985963433105
8
REF_energy=-445.1900702646221362 charge=-1 Properties=species:S:1:pos:R:3:REF_forces:R:3
Na	8.0660344988562738	2.8915246854639851	5.0770231729603923	-0.0000632919887810	-0.0001904322595904	0.0000327457126740
Na	2.7705640144891150	7.2418085386785833	6.3457042666709427	-0.0001169686567341	-0.0003122876241595	-0.0000149081285055
Na	5.2944572457436916	8.0440085116919420	8.5487744824670440	0.0001314052209186	0.0001310744344019	-0.0001730588219656
Na	6.6807704408136468	0.6188404109778214	2.7076392936882301	0.0001673151358724	-0.0001189832931300	0.0001473699136111
Na	6.0676565120701644	5.9591364875834971	5.6787512350966649	0.0001161765563025	-0.0000734253555128	0.0000827715741071
Na	3.0567380151631682	5.3037383519247427	3.3916225265198103	-0.0000639752450355	0.0001652461893288	-0.0000309658295807
Na	3.8395968952116100	2.1807015864663790	1.3307795147615813	-0.0000312682559791	0.0000887760439581	-0.0000503073413422
Na	6.2033509735136674	4.2598431424172976	2.6472340071549896	-0.0001393927665638	0.0003100318647038	0.0000063529210018
8
REF_energy=-445.1718321210485669 charge=-1 Properties=species:S:1:pos:R:3:REF_forces:R:3
Na	6.2014516304183038	3.9580290774175118	0.0617635690867177	0.0000214422665883	0.0000397049503943	0.0000438289379899
Na	0.3894960502780610	3.3715395881428627	2.0800457526693674	0.0000459856148487	0.0000400657589951	0.0000397390802922
Na	3.1491336862593773	2.0427532280000631	0.3676954854943161	-0.0000655417493883	0.0000488503512463	-0.0000366409477725
Na	3.4097392877056629	8.4661660877101319	3.2807137702734988	0.0001195344199572	0.0001030680224909	0.0000109476363390
Na	6.0406890938116105	0.7676116785395819	-1.3796459641078904	0.0000103516580521	-0.0000050714255504	-0.0000118695366397
Na	3.4426935202100313	5.2922656611607017	1.7760529031186183	-0.0000367386336976	-0.0001325957905200	-0.0000626135431153
Na	0.5451509460099709	6.5622859346663001	3.5190148482238457	-0.0001212840942425	-0.0000472668740875	0.0000174585289390
Na	3.1696217543420802	-1.1282919344558062	-1.1396879836475773	0.0000262505178821	-0.0000467549929686	-0.0000008501560327
8
REF_energy=-445.1657785233832669 charge=-1 Properties=species:S:1:pos:R:3:REF_forces:R:3
Na	8.9539414690637429	7.6192996628736713	3.1504816777396751	0.0000005931420798	-0.0000338356778604	0.0000439717486359
Na	6.6641566149793459	5.4317720495703643	1.7493105422898989	0.0000487348755149	0.0000232345046745	0.0000405750218437
Na	6.3621185960603599	6.1738363840188750	5.1934786595552147	-0.0000647941659367	0.0000444186172976	0.0000481118996526
Na	3.6285292743664854	4.4639249842102195	6.6485542529639288	0.0000603356806767	-0.0000615742975668	-0.0001066904123886
Na	5.5372222612423476	6.5099689982210140	8.6866215148039672	-0.0000125088733822	0.0000055619502435	-0.0000960655150692
Na	3.9318189496413702	3.7197486538747753	3.2043741181145200	0.0000460658866837	0.0000295974330605	0.0000998939526983
Na	4.7708131785246737	3.3667245641207368	-0.2835665262819448	-0.0000937551381620	-0.0000291539809196	-0.0000309869069180
Na	1.3257294394899530	2.2931696846588099	5.2424724829072531	0.0000153285925258	0.0000217514510706	0.0000011902115453
8
REF_energy=-445.1587532376281047 charge=-1 Properties=species:S:1:pos:R:3:REF_forces:R:3
Na	6.9771526767531045	2.2433818965288195	5.5491735030608567	0.0000389248390189	0.0000009332392158	-0.0000257545844867
Na	1.5627719900036567	7.3990990500742218	-0.3804586210750330	0.0000274487601220	-0.0000098648902010	-0.0000212567141601
Na	2.6429976002579818	1.5575479257492808	-0.0024095231546833	-0.0000280787160160	0.0000048974103714	-0.0000596798424789
Na	0.4049341070831498	1.2258812703647202	-2.8639154623486456	-0.0000044086864628	-0.0000124782527822	0.0000290830173779
Na	5.5529616456089057	5.0869285564423485	4.2107870812903245	-0.0000412907217722	-0.0000131850874757	0.0000233181746672
Na	4.7808944684104020	1.9228718562968787	2.7394479044856004	-0.0000041707644169	0.0000349092445985	0.0000144739423643
Na	3.2951345737412798	4.8271324865378045	1.3461471152624855	-0.0000205760805341	-0.0000103347192878	0.0000318953738773
Na	0.9654012093848778	4.3439441719020389	-1.6391665542900393	0.0000321513700610	0.0000051230555610	0.0000079206328390
8
REF_energy=-445.1510461027833117 charge=-1 Properties=species:S:1:pos:R:3:REF_forces:R:3
Na	3.6940674335613646	0.2094455422234599	5.1138663118978620	0.0000080290208905	-0.0000136284674542	-0.0000725578308594
Na	0.3545206704547100	0.2097702303719972	3.8526352591177404	-0.0000375151580868	0.0000021008986787	-0.0000141817586852
Na	6.9627292132922110	0.2097413661039723	4.4923674486466050	-0.0000154605748541	0.0000018043738633	0.0000186233608445
Na	4.3168988782457491	0.2097411122464729	1.8455730732702322	0.0000146742155482	0.0000018337234101	0.0000126115695711
Na	1.0349631534705839	0.2098131713646974	0.4728811602019090	0.0000103458410482	0.0000016293243599	0.0000272182201577
Na	4.9562388970494338	0.2097711512155004	8.4532912941461760	-0.0000188658921109	0.0000022859460194	-0.0000167480969623
Na	1.3842452366120221	0.2097451283002481	7.4244416542228189	-0.0000020822260376	0.0000024490608553	0.0000330502487401
Na	8.3361677086145676	0.2098122926041839	7.7739152678985564	0.0000408747736025	0.0000015251402675	0.0000119842871935
8
REF_energy=-445.1245805621248905 charge=-1 Properties=species:S:1:pos:R:3:REF_forces:R:3
Na	3.5924383732009466	7.0578559000549861	4.8059114484202574	-0.0000224690902391	-0.0000221979034312	-0.0001435774507786
Na	2.0148199737558397	5.8529523601494606	1.6709836370425648	0.0000972112597380	0.0000243107194092	0.0000315358906175
Na	7.8368216222840701	2.9244756116365007	3.7496365278220378	0.0002739843537728	-0.0000381932658364	0.0000632828383722
Na	3.6161241350980644	3.1389695989772104	-0.2059045271068035	-0.0001675719053793	-0.0002308074658997	-0.0002968114555073
Na	4.9541657720438677	4.3942196702162626	2.7191229451183250	-0.0000383831830231	-0.0001142226676650	0.0002571868259850
Na	6.5110386234145139	5.4926245377381262	5.7309080221460276	-0.0000781147666295	0.0001684478114369	0.0000416133417457
Na	1.9256062904484466	2.1055154667529492	-3.1970130796270810	0.0000456967513421	0.0001389686504884	0.0000205555497980
Na	0.5267552612859884	4.6354521579184365	-1.3655101996627945	-0.0001103534195818	0.0000736941214979	0.0000262144597675
8
REF_energy=-445.1156405724107117 charge=-1 Properties=species:S:1:pos:R:3:REF_forces:R:3
Na	3.1159692342002474	2.3883657621171239	5.2632620356210937	0.0000490404099716	-0.0005853127058534	-0.0003904857907572
Na	2.3509930757507576	4.6137464495340312	-0.6512685823614383	0.0001580340900534	0.0000355321914170	0.0000853389874372
Na	1.3418885076687919	2.3730933170303370	1.9751039635362386	-0.0003370274396316	0.0002357971858664	0.0004031348594251
Na	6.3677326278819892	6.7371279650695310	2.5209636777881315	0.0002238196924486	0.0000288140242830	-0.0000216414750113
Na	7.9497047119038386	5.1744706177970174	8.3272555148080762	0.0001536803573919	0.0004564441415211	0.0002736117019981
Na	5.2634872087854934	2.8750760941516518	8.1314275022541569	-0.0001886470567480	-0.0001992157645120	0.0001009085997968
Na	3.8845823737986329	4.5059571798249838	2.4884734474313701	-0.0001154367883058	-0.0000278159141849	-0.0001983083191182
Na	5.9554727676258477	4.8923609849659035	5.4227742296780859	0.0000565367348199	0.0000557568414630	-0.0002525585637705
8
REF_energy=-445.0980163598940180 charge=-1 Properties=species:S:1:pos:R:3:REF_forces:R:3
Na	4.8137582550312832	0.3552086353826577	6.9821789094161613	0.0002014819163043	0.0001307505072988	-0.0001246742158377
Na	2.4424680900176474	-1.3729081919171182	4.9999444448785644	-0.0001524135887182	-0.0001087241554864	0.0002292316714552
Na	7.7253972189018620	1.8300210924541707	5.6743093550987034	-0.0001131760568286	-0.0000426139185303	-0.0001831966991986
Na	-1.1478415067741019	-0.6089197587197662	4.9166901720070371	0.0001698835582533	-0.0001402938966257	-0.0001041477135264
Na	-0.1127204336923573	-3.6707558293184239	3.9917202515096939	0.0000050209920299	0.0000896115859554	-0.0001358323391611
Na	4.7488523467388921	1.6820692766878493	3.7934251492443378	0.0000690234296344	-0.0001072978715663	0.0001991653635605
Na	1.5276103137647432	1.8928121669916422	5.2348801701169068	-0.0002062741498280	0.0001196718891632	0.0002307774047934
Na	-1.9440662893841385	2.5271293635001628	5.8306760354603488	0.0000264538991530	0.0000588958597913	-0.0001113234720853
8
REF_energy=-445.0368520678837285 charge=-1 Properties=species:S:1:pos:R:3:REF_forces:R:3
Na	8.4894626576311900	8.4135374680896451	2.1000994624646290	-0.0002745127345377	0.0002793467982735	0.0002291653843283
Na	0.6593772161586717	3.3551877172330533	-2.2979837546380910	-0.0000187831764917	-0.0000999961134762	-0.0000531730227836
Na	-1.2044911369502525	0.3434177925140187	-1.7416167286605215	-0.0003688717710166	0.0002053771267166	0.0002550548278992
Na	6.1323051990684441	6.0492279997660461	1.7070714806374567	0.0000356334698079	-0.0002010514568859	0.0002020895978778
Na	2.4971394748440545	0.0622051151588351	3.2242577036349438	0.0001379465798914	-0.0001539911135913	0.0003546202012848
Na	3.2782750862961230	4.8118412585607357	-0.4617737683034994	0.0004562972672004	-0.0001731502836356	-0.0003629887086374
Na	1.4409094436338439	1.5769864057159011	0.4111341725717030	-0.0000600844062993	0.0001325927067318	-0.0002429901713575
Na	4.1736270039077992	3.0728361580412118	2.3300597277356654	0.0000923747714455	0.0000108723358671	-0.0003817781086115
8
REF_energy=-445.0282299647089985 charge=-1 Properties=species:S:1:pos:R:3:REF_forces:R:3
Na	4.7746080625018310	2.9196613321778462	4.6245179754053725	0.0003437579230575	-0.0002168608168542	0.0001760994117369
Na	1.6393751517517494	6.2202867181514074	0.7336875262163046	-0.0004395783384067	-0.0002246085074798	-0.0006467059486647
Na	5.5206105178443776	-1.9905302493653176	-3.3017391238592166	-0.0000746011010461	0.0004519369901531	-0.0003836794449372
Na	2.5435400571049356	3.7109093163651230	-1.5860959815953823	0.0003875779229944	0.0000880431679565	0.0002004818016216
Na	3.7605722246284428	3.1014706359892781	1.3829045300724530	0.0001055749598339	-0.0004521597888684	0.0002042943890819
Na	4.4935839261829571	0.6081366043607893	-1.4125707971351540	-0.0001356698234580	-0.0005278856494572	0.0000449070169699
Na	2.8490076078426942	5.6966818850090464	3.9161705142339023	0.0001384139729880	0.0000141350399563	0.0005695476226251
Na	0.9482563436822496	8.5535513380016823	3.5940697029607565	-0.0003254755159631	0.0008673995645937	-0.0001649448484336
8
REF_energy=-445.0172471085627990 charge=-1 Properties=species:S:1:pos:R:3:REF_forces:R:3
Na	1.1567151466989680	6.6356906918062935	4.0542262508490365	-0.0000070213047486	-0.0000216605934733	-0.0000190052617451
Na	3.0827662972040910	0.8152842143065047	-4.4323584042058526	-0.0001846122950902	0.0000521111513946	-0.0002328609733421
Na	4.9971534963561961	1.6158112804575360	1.1707186746817206	0.0001035219425193	-0.0000869046982411	-0.0000437144544132
Na	-0.1978808732422306	8.9002157312134091	6.1055738433462468	-0.0000600826526509	0.0000234650578677	-0.0000125259545881
Na	7.3707991779847175	-0.9643881396052537	0.4635095451016696	-0.0001584231287923	0.0000556316838545	-0.0001693891159803
Na	2.8376090715978943	2.5114553099919279	-1.2928305265727340	-0.0000043932240535	0.0001014003965539	0.0001403207427688
Na	5.2437399979839157	-0.1102960276631997	-2.0128922634816302	0.0002816608367996	-0.0001518472386116	0.0003383048691323
Na	2.5959495934499279	4.2346077374800224	1.8885673655142512	0.0000293498260166	0.0000278042406553	-0.0000011298518323
8
REF_energy=-444.9888098449116001 charge=-1 Properties=species:S:1:pos:R:3:REF_forces:R:3
Na	9.1343631257551046	1.8361839916832645	-1.9337180309704680	0.0000523611004233	-0.0000012308191949	-0.0000273765254673
Na	-0.8383184834469154	2.1749021766083092	-1.4434779024495732	0.0000233035930472	-0.0000223442207442	0.0000651075955646
Na	2.6908536540237860	2.6253786734710198	-0.6653538864471769	-0.0001148380817964	0.0000123218777601	0.0001157539336943
Na	4.4056890011600620	5.9979643598820660	5.0984225963719636	-0.0003092441574636	-0.0002129338403000	-0.0000687382351034
Na	1.1512472415825890	5.4516142598009774	4.2003625862459550	0.0001308678296444	0.0001939422592964	0.0000219906279747
Na	6.3225754029772601	2.7585057307589431	-0.4009491256617205	-0.0000278606272877	0.0000968848078721	0.0000517719448833
Na	0.0061760404648207	3.8294251156619992	1.4125997825127523	0.0000687181961828	0.0000118782100661	0.0000149309838944
Na	3.8886742807807244	4.2042960566472116	2.0345129599894793	0.0001766921472500	-0.0000785182747558	-0.0001734403254405
8
REF_energy=-444.9638191649535770 charge=-1 Properties=species:S:1:pos:R:3:REF_forces:R:3
Na	9.9730550702589174	4.7804518272346908	3.9497160682244581	-0.0001953110251963	-0.0000668232149010	0.0002361334156910
Na	1.4220985409553240	4.4130509727947844	-0.2983422590038259	0.0001173761426897	-0.0000256048857220	-0.0002556665321292
Na	-1.5319338425851290	-1.3886159381752383	-0.4889574670099838	0.0000588545317470	0.0003285126851702	0.0000049930313329
Na	4.3819375429541365	6.0010148035762754	0.8521619795304867	0.0001346587517031	0.0000355879172406	0.0000124482769374
Na	6.9622663245179863	4.2385223810698278	2.5705264759989439	0.0000669888026019	0.0002097725712075	-0.0004307649814099
Na	3.8807560718999605	2.5822429971184824	1.3795181831162810	0.0004102281396825	-0.0002308517224339	0.0002133334966064
Na	0.8004720460424453	0.9319338816096774	0.1736668052108929	-0.0002986181308238	-0.0000428795651570	0.0000741925189327
Na	1.9354958705947687	7.8100013496975320	-0.8225384359149494	-0.0002941772124040	-0.0002077137854044	0.0001453307740387
8
REF_energy=-444.9597379765455116 charge=-1 Properties=species:S:1:pos:R:3:REF_forces:R:3
Na	17.1324812794767851	0.0750031207036070	0.0750031207061218	0.0000069973585736	-0.0000777723969105	-0.0000777723969644
Na	18.6894985537837215	2.2457898930031686	2.2457898930023195	-0.0000534122293314	0.0000238296435707	0.0000238296439423
Na	20.6198138287097379	-0.0918989660800716	-0.0918989660831192	-0.0000643734797801	0.0002003706136001	0.0002003706134530
Na	14.9848366712533903	1.9674877354848104	1.9674877354869815	-0.0000483532101602	-0.0000902600502731	-0.0000902600503143
Na	22.1788417850423762	2.2033529621506651	2.2033529621493573	0.0001295915556783	0.0000092917803604	0.0000092917800998
Na	24.0899555771778324	-0.1284316698375620	-0.1284316698415169	-0.0001195039821473	0.0000288615381951	0.0000288615383116
Na	25.6591014659934373	2.0191786948576551	2.0191786948581680	0.0001208638389195	-0.0000782746171639	-0.0000782746172558
Na	27.7839319515384560	0.0986783859677296	0.0986783859716601	0.0000281901482476	-0.0000160465113788	-0.0000160465112722
8
REF_energy=-444.9539567436731318 charge=-1 Properties=species:S:1:pos:R:3:REF_forces:R:3
Na	8.0630126626053595	3.2728092737468142	-1.1240939103954946	-0.0000130635630985	0.0000671978288382	0.0001174619688162
Na	6.9389114293666276	5.8832587722387641	0.9846644168312113	-0.0000160557455407	-0.0000331480730413	-0.0000884072863304
Na	5.6026569981543695	1.3054847190607950	-2.4251823252500406	-0.0000574635941566	-0.0000094526962651	0.0000242391995019
Na	2.2086503906249959	1.9754737708129368	-1.5984949663026380	-0.0000400671379906	-0.0000739179653990	-0.0000108632332589
Na	4.4790622951252921	4.0049797518300556	-0.2310779765977481	0.0000507348275429	0.0001297435483153	0.0000795924050335
Na	3.6723226931107615	6.8259944124575203	1.9929343910067601	0.0000718060895734	-0.0000132268297305	-0.0001449325687434
Na	3.4378907106488086	9.6120971546182830	4.1169719845929995	0.0000037513740130	0.0000819948221312	0.0000322100456897
Na	3.1344674399783479	12.2547372619624486	6.1301151425181359	0.0000003577496572	-0.0001491906348489	-0.0000093005307086
8
REF_energy=-444.9538408427252989 charge=-1 Properties=species:S:1:pos:R:3:REF_forces:R:3
Na	-2.8669234645563511	-0.8297149634147922	5.3873433320455586	-0.0001852847095246	0.0006560945618663	0.0003439620239485
Na	-1.5836430853474415	1.6433880125765468	7.3238887387546603	0.0001011755320423	0.0000335314317032	-0.0002000795286214
Na	4.0247121408118725	1.2391531475221882	4.0562467052341660	-0.0003298478281286	0.0000707611672614	0.0000347856175932
Na	1.7559574744585600	2.5079838853422598	6.5338936138292532	0.0003616550425470	-0.0002240850407101	-0.0000222795681748
Na	-0.9179204800007008	-2.3209737821198568	2.8218553878138732	-0.0002559411409851	-0.0005841510396460	-0.0003075156437018
Na	0.5746145742289349	0.0874634319394697	4.5973592205118825	-0.0000093239217503	-0.0003169965823709	0.0001655676159508
Na	7.3348978620501057	2.1786905197555715	3.3201470978392820	0.0002269057646361	-0.0000158135576970	-0.0004243902800110
Na	10.4695401144050244	3.0305205145453331	2.5591622671023275	0.0000906612611633	0.0003806590595932	0.0004099497630166
8
REF_energy=-444.9209401190651647 charge=-1 Properties=species:S:1:pos:R:3:REF_forces:R:3
Na	2.7845022143729552	3.8364245796408869	2.3142623758504968	0.0002522966144224	0.0001154550331177	0.0000854127922619
Na	5.0938065828643104	8.4853487063286277	-0.7969592905246502	0.0001913644142805	-0.0000003541599707	-0.0000274936957738
Na	-0.3197220927270834	1.9406067938580629	3.2762412046892062	-0.0000045273185452	0.0000140567359789	0.0000160958201422
Na	-1.9251535480095425	-0.4842836566736001	4.8529889551364835	0.0000367093025329	-0.0001820714885766	0.0000037875011751
Na	2.1759560657385548	7.0047017750714824	-0.1067182244662285	-0.0000888669586490	-0.0000696782233592	-0.0000245992429383
Na	5.5156627474063962	5.6593799365067001	1.3480101022006086	-0.0002182189790217	-0.0000673625745211	0.0001430572710365
Na	-0.2614848439977113	4.8337838093371088	1.1419333126477322	-0.0002452230461101	0.0001899502490363	-0.0001015422895728
Na	8.3013408431588367	7.4619118656525396	0.4074695086971175	0.0000764659710901	0.0000000044282946	-0.0000947181563308
8
REF_energy=-444.8990176197128790 charge=-1 Properties=species:S:1:pos:R:3:REF_forces:R:3
Na	5.7762617562382168	3.1217603316689573	2.7263443555665097	0.0001426727606338	-0.0000062247492473	0.0002691496039680
Na	2.6136568616651950	2.0148660462021892	1.7149214547292959	0.0000666738200166	0.0001300979566347	-0.0002904191901409
Na	-0.7058832446524768	0.8971482538467889	0.6031968796849526	0.0000793252767063	0.0002600412973257	-0.0000644542198065
Na	9.9800160250487622	8.2053326673865623	1.0873203860972427	0.0000750383156794	-0.0002494349578676	-0.0000662437328588
Na	4.2096719129965106	4.8816819246352514	0.1959459620016003	-0.0003875896270385	0.0000783298688851	0.0000142431272807
Na	1.0535824142124908	3.7750194968056796	-0.8207845840599628	-0.0000531295460115	-0.0000592648428863	-0.0000412717642040
Na	-3.2569742994792676	-1.1840710439618722	0.8310782556366874	0.0000697856453621	-0.0002219437084231	0.0000810416992991
Na	7.5084532505312360	6.0313993942909230	1.3295961327918318	0.0000072233546518	0.0000683991355788	0.0000979544764624
8
REF_energy=-444.8874105741724065 charge=-1 Properties=species:S:1:pos:R:3:REF_forces:R:3
Na	8.2314346484555543	10.0289613407904774	0.5621702758618664	0.0000455112994498	-0.0001676328385214	-0.0000942980488679
Na	5.1783866540193646	8.9532800256103737	-0.2018712479254936	0.0001580383564657	0.0001367222177553	-0.0001193634836801
Na	1.9052699606971226	7.1873055767390737	0.0155463677841282	-0.0002139600230123	-0.0000031695088281	-0.0001704902619469
Na	1.3914892082017185	3.0609929933602644	5.5964638750143791	-0.0000755981082600	0.0000848129622174	0.0003330221851282
Na	-0.5377734228151962	7.7130735098446914	-2.5791961232169172	-0.0002041472121093	0.0000338539570459	-0.0002941756240466
Na	-1.1918383738304175	5.6429273363731545	0.1385684673096287	0.0003247513474137	-0.0001898603082282	-0.0000652131381712
Na	1.0914302319514668	4.8763046340859173	2.8258626921218410	-0.0000053945475259	-0.0000969566009343	-0.0001100625644323
Na	2.5778087837977375	9.2512284437263261	-2.6861680839871562	-0.0000292011124216	0.0002022301194934	0.0005205809360167
8
REF_energy=-444.8660976038308377 charge=-1 Properties=species:S:1:pos:R:3:REF_forces:R:3
Na	15.0473753246438378	-3.1177499758173535	1.7400254701657571	-0.0002370371242304	-0.0001944282223054	-0.0003263936866562
Na	15.6596710918104325	6.7274491782292447	-1.3187334584586610	0.0006676940312290	-0.0002300286936991	0.0001840197797969
Na	15.5626414100844865	-0.3329344703379471	-0.1796004746716597	0.0000240944392691	0.0002149138543528	0.0001312050900637
Na	21.7070848594345911	-3.0019924173623447	0.8277369251813413	0.0002507598120303	0.0001354610506306	0.0003047008323549
Na	15.7899242409284941	3.2370356652192980	-0.8382732104672997	0.0000069803778549	-0.0006346250876012	-0.0004582416247125
Na	18.4546483365637428	-2.6279595157246591	1.0515986691520611	0.0000381101042825	0.0005368212631281	-0.0000648185811657
Na	13.9988186967010027	1.2236556522619129	-3.0018671537209491	-0.0003405253913575	0.0001311690087891	0.0001336089946248
Na	13.9574851514204106	4.7013023263132094	-3.5042945020876890	-0.0004100762490779	0.0000407168267050	0.0000959191956941
8
REF_energy=-444.6581576068182358 charge=-1 Properties=species:S:1:pos:R:3:REF_forces:R:3
Na	-2.0025970765163632	5.3593779297664623	3.6749890574796202	0.0001336411905048	-0.0000994974503982	-0.0002576978835874
Na	3.8585277832502638	7.4398328961983795	1.0386184739731252	-0.0000584043376724	-0.0000687665658361	0.0000527891841863
Na	8.8960806796568761	2.9789339291018155	-0.1493390956198098	0.0000372100423215	-0.0000445676223042	0.0002895330392923
Na	-3.1112464315656538	7.8902561211508262	1.4890749703808510	0.0001070698661084	0.0001033427758106	0.0001357804199275
Na	0.5627438645584728	6.7325684384533275	1.9541819202989663	-0.0000811395973604	-0.0002048366209827	0.0000268190458352
Na	-5.1435156482993563	9.9124433856396355	-0.0616764374811029	-0.0000331275723272	0.0001310639977949	0.0000640154517099
Na	6.6662626260911955	9.2394394291133661	0.4891109879220658	-0.0000231890709041	0.0001401251547090	-0.0001638614272536
Na	7.2761463164489992	5.7758871698487999	0.2721108179754985	-0.0000820605206706	0.0000431363312066	-0.0001473778301101
8
REF_energy=-444.6455439919799915 charge=-1 Properties=species:S:1:pos:R:3:REF_forces:R:3
Na	0.8117969285147204	3.2056709132474834	-4.4256088555985231	-0.0003269288743797	-0.0001319242274319	-0.0003588633504887
Na	3.2528615067355950	5.1503135044703852	11.7692191504550596	-0.0000275766036286	-0.0001052778568454	0.0001306035468425
Na	2.6857216849293204	3.3700325654174499	-1.6462800445955768	-0.0003526646294215	0.0000823189853862	-0.0001289337730975
Na	6.9365742097998915	2.3826128262846780	-6.9360686869478823	0.0002186875442039	-0.0000555334495821	0.0002214755324390
Na	3.3321348588328266	4.1731625360285047	5.0864751679937230	0.0002712099978727	-0.0000543474892633	0.0001766380037556
Na	4.2391694166694665	2.8213965668961274	-5.1725223825545923	0.0001749904025586	-0.0000007398953864	0.0000584186338166
Na	3.2945058632634718	3.7288447529053252	1.7283826424107758	-0.0001195272716573	0.0002108967105492	-0.0001043265513521
Na	3.3030950279455498	4.6656340093475022	8.5204073357669774	0.0001618094344519	0.0000546072225738	0.0000049879580846
8
REF_energy=-444.6180281804350329 charge=-1 Properties=species:S:1:pos:R:3:REF_forces:R:3
Na	6.9456327371886584	-1.7963666979305684	7.1746008352404838	-0.0000889520677389	0.0000019074828028	-0.0000305662219837
Na	-2.3121484564422046	0.7368314154532393	3.8128023109189400	-0.0000547712046531	-0.0000016691549800	0.0001057507013967
Na	3.8637811222718956	-0.9666133495653338	6.0725348777785229	0.0000557190060669	-0.0000878435545783	0.0000405666432865
Na	10.1237724108919469	-2.6265183084992350	8.2997692660402560	0.0000488259181838	-0.0000326492217653	-0.0000280339390021
Na	13.1095097731491190	-3.4202997178607286	9.3731040580355067	0.0000071287789349	0.0000873926938598	-0.0000013251514920
Na	0.7519069765051943	-0.1171071330526209	4.9420571701424159	-0.0000024965874647	-0.0000325143664819	-0.0000088784196305
Na	-5.4582778676078094	1.6275280077831547	2.6505111298842987	-0.0000286926213828	0.0000354906455317	-0.0000243201766091
Na	-8.4143261280212567	2.4773700558309786	1.5402132333268890	0.0000632387780539	0.0000298854756111	-0.0000531934359659
