8
REF_energy=-444.8874105741724065 charge=-1 Properties=species:S:1:pos:R:3:REF_forces:R:3
Na	8.2314346484555543	10.0289613407904774	0.5621702758618664	0.0000455112994498	-0.0001676328385214	-0.0000942980488679
Na	5.1783866540193646	8.9532800256103737	-0.2018712479254936	0.0001580383564657	0.0001367222177553	-0.0001193634836801
Na	1.9052699606971226	7.1873055767390737	0.0155463677841282	-0.0002139600230123	-0.0000031695088281	-0.0001704902619469
Na	1.3914892082017185	3.0609929933602644	5.5964638750143791	-0.0000755981082600	0.0000848129622174	0.0003330221851282
Na	-0.5377734228151962	7.7130735098446914	-2.5791961232169172	-0.0002041472121093	0.0000338539570459	-0.0002941756240466
Na	-1.1918383738304175	5.6429273363731545	0.1385684673096287	0.0003247513474137	-0.0001898603082282	-0.0000652131381712
Na	1.0914302319514668	4.8763046340859173	2.8258626921218410	-0.0000053945475259	-0.0000969566009343	-0.0001100625644323
Na	2.5778087837977375	9.2512284437263261	-2.6861680839871562	-0.0000292011124216	0.0002022301194934	0.0005205809360167
8
REF_energy=-445.1156405724107117 charge=-1 Properties=species:S:1:pos:R:3:REF_forces:R:3
Na	3.1159692342002474	2.3883657621171239	5.2632620356210937	0.0000490404099716	-0.0005853127058534	-0.0003904857907572
Na	2.3509930757507576	4.6137464495340312	-0.6512685823614383	0.0001580340900534	0.0000355321914170	0.0000853389874372
Na	1.3418885076687919	2.3730933170303370	1.9751039635362386	-0.0003370274396316	0.0002357971858664	0.0004031348594251
Na	6.3677326278819892	6.7371279650695310	2.5209636777881315	0.0002238196924486	0.0000288140242830	-0.0000216414750113
Na	7.9497047119038386	5.1744706177970174	8.3272555148080762	0.0001536803573919	0.0004564441415211	0.0002736117019981
Na	5.2634872087854934	2.8750760941516518	8.1314275022541569	-0.0001886470567480	-0.0001992157645120	0.0001009085997968
Na	3.8845823737986329	4.5059571798249838	2.4884734474313701	-0.0001154367883058	-0.0000278159141849	-0.0001983083191182
Na	5.9554727676258477	4.8923609849659035	5.4227742296780859	0.0000565367348199	0.0000557568414630	-0.0002525585637705
8
REF_energy=-445.2259154957649230 charge=-1 Properties=species:S:1:pos:R:3:REF_forces:R:3
Na	7.2664378523273667	4.0369969262138747	-1.0543541556207541	-0.0000171314847614	-0.0002024261833703	-0.0000718339129768
Na	1.2195490609154258	4.3730485143942621	-1.5517447452253237	-0.0001101965447263	0.0001376842101757	-0.0000222322121206
Na	0.3893497921930650	3.5156556728019961	1.8020240904026299	0.0000923117598925	-0.0002353821884120	0.0000441755309690
Na	3.2665095463479656	2.8261432076356487	3.9705703784705157	0.0000390658618467	0.0001392223205656	0.0001125014175074
Na	6.4581351253149428	3.1357591636894111	2.4087455825075126	-0.0000472925775668	0.0000909606472236	0.0000572537598481
Na	3.8658937271909859	3.7677461451554342	0.3978047432405573	0.0002082327033050	-0.0001158939609448	0.0000805492804140
Na	-0.0201548110819424	2.6290633436397313	5.1646551561254164	-0.0001323435218469	0.0000049234258421	-0.0000636084586768
Na	4.5336825736426691	4.6742930318326552	-3.1201526088452227	-0.0000326461961428	0.0001809117289201	-0.0001368054049644
8
REF_energy=-440.5125105785354549 charge=1 Properties=species:S:1:pos:R:3:REF_forces:R:3
Na	5.6073882147495242	3.5225394929854636	3.0327843208456389	-0.0001293164331706	-0.0001112405849295	-0.0000261331517338
Na	1.7342724846201092	3.8715916545147233	-1.2340891050259546	0.0001605253568558	0.0002201787673613	0.0004388832918058
Na	5.5036056784630238	7.1599635145453462	3.4764092725051872	-0.0001331605426885	-0.0000394008547646	0.0002863932711300
Na	5.0982617788730060	2.7432544763652134	-0.4919455131057672	-0.0001193018911595	-0.0002288101506356	-0.0005641787189705
Na	3.2763365449206505	1.5220651227619433	5.0352304140596296	0.0001439830907969	0.0005994761607628	0.0002246828062194
Na	2.4208855558319029	2.2998359803348905	1.8360887351572310	0.0001552614251001	-0.0000639079554251	0.0000348540590031
Na	2.6869042295737935	5.0027876196175374	4.2084496957822832	-0.0002330249024248	-0.0003940732213427	-0.0004788021860715
Na	3.8055286417867675	5.7869230238601386	0.8671012592364254	0.0001550338966907	0.0000177778389733	0.0000843006286175
8
REF_energy=-440.2179707271587858 charge=1 Properties=species:S:1:pos:R:3:REF_forces:R:3
Na	2.4177946841369118	2.4177946840966009	2.3232096511743605	0.0000470689126705	0.0000470691259172	-0.0000289534775435
Na	6.2991405414513642	2.5733116241620966	2.2312243350169889	0.0000250292624186	-0.0000147976440651	-0.0000111514644574
Na	2.5733116242333272	6.2991405416184474	2.2312243351631622	-0.0000147976582598	0.0000250290907958	-0.0000111516074517
Na	6.3302773656472633	6.3302773656738101	2.3605085225412941	-0.0000379229361480	-0.0000379229586334	0.0000414574935472
Na	4.2933676765344453	4.2933676763660742	0.1925758241159523	0.0000364031742482	0.0000364033895316	-0.0000075885176527
Na	0.4126322145393378	4.1384384921523258	0.2846391862443930	0.0000176504481338	-0.0000689791385051	-0.0000087504562552
Na	4.1384384922366948	0.4126322147096067	0.2846391863441471	-0.0000689791593680	0.0000176502215675	-0.0000087506172819
Na	0.3802781729910833	0.3802781729915378	0.1589386981310578	-0.0000044520436954	-0.0000044520866086	0.0000348886470952
