8
Properties=species:S:1:pos:R:3:REF_forces:R:3:forces_eV_A:R:3:forces_Ha_Bohr:R:3 REF_energy=-444.8168804296039 charge=0 energy_eV=-35293.46365405423 pbc="F F F"
Na       2.80878832       3.01450247       4.42913381      -0.00014877      -0.00007399       0.00004092      -0.00452432      -0.00274450       0.01966562      -0.00008798      -0.00005337       0.00038244
Na       4.83307104       1.59516023       1.91973453       0.00009827      -0.00006513       0.00000990       0.00714102      -0.00749562       0.00347702       0.00013887      -0.00014577       0.00006762
Na       2.28192234       5.56720849       2.05986734      -0.00000499       0.00013707       0.00005852      -0.00359504       0.00947382       0.00441224      -0.00006991       0.00018424       0.00008580
Na       5.61580002       4.87035527       2.95115181      -0.00000602       0.00002371      -0.00008345       0.01649888       0.00966418       0.00846076       0.00032085       0.00018794       0.00016454
Na       4.84609469       4.48753007      -0.29410370       0.00011635      -0.00002144       0.00005564       0.00685252       0.00419017      -0.00836182       0.00013326       0.00008149      -0.00016261
Na       1.39411976       4.48017365      -0.98980489      -0.00008691      -0.00007945      -0.00008754      -0.01258116       0.00767448      -0.01486648      -0.00024466       0.00014924      -0.00028911
Na       3.37890342       1.38809037      -1.09993636      -0.00015057       0.00007129       0.00001370       0.00154111      -0.01471306      -0.01363739       0.00002997      -0.00028612      -0.00026521
Na       1.23927170       2.10471685       1.60393463       0.00018264       0.00000795      -0.00000769      -0.01068896      -0.00599302       0.00054131      -0.00020787      -0.00011655       0.00001053
8
Properties=species:S:1:pos:R:3:REF_forces:R:3:forces_eV_A:R:3:forces_Ha_Bohr:R:3 REF_energy=-444.72382071225564 charge=0 energy_eV=-35293.37105993899 pbc="F F F"
Na       3.64546550       2.37466567      -0.44265977      -0.00003406       0.00001996       0.00002147       0.00324925      -0.00612386      -0.00898815       0.00006319      -0.00011909      -0.00017479
Na       2.18520216       5.46216392       4.16071556      -0.00000438       0.00003306       0.00000390      -0.00390098       0.00827460       0.01348458      -0.00007586       0.00016092       0.00026223
Na       0.17153040       2.38018986      -0.25383161       0.00000379      -0.00001349      -0.00000009      -0.01395995      -0.00533975      -0.00642772      -0.00027148      -0.00010384      -0.00012500
Na       4.90972509       4.30683513       2.33204764      -0.00003716      -0.00002045       0.00001585       0.00987926       0.00478150       0.00499397       0.00019212       0.00009299       0.00009712
Na       1.84113732       5.27793521       0.70500600       0.00002819      -0.00000962      -0.00003041      -0.00622714       0.00815541      -0.00383258      -0.00012110       0.00015860      -0.00007453
Na       5.07395335       0.83295980       2.32955648       0.00000704      -0.00001805      -0.00002230       0.00909262      -0.01211483       0.00374222       0.00017682      -0.00023560       0.00007277
Na       1.94423117       2.29695230       2.73663221       0.00003312      -0.00000641       0.00000651      -0.00575465      -0.00621231       0.00770476      -0.00011191      -0.00012081       0.00014983
Na       4.90906923       5.58176866      -0.90493293       0.00000345       0.00001500       0.00000507       0.00908220       0.00915841      -0.00970994       0.00017662       0.00017810      -0.00018883
8
Properties=species:S:1:pos:R:3:REF_forces:R:3:forces_eV_A:R:3:forces_Ha_Bohr:R:3 REF_energy=-444.6983674398646 charge=0 energy_eV=-35293.34634443571 pbc="F F F"
Na       2.87614287       2.87614295       3.01640436      -0.00001434      -0.00001434      -0.00005542       0.00203985       0.00203985      -0.00222729       0.00003967       0.00003967      -0.00004331
Na       6.16605139       2.21525363       1.72545265      -0.00000794      -0.00000175      -0.00001657       0.01493342      -0.01288229       0.00508500       0.00029041      -0.00025052       0.00009889
Na       2.21525367       6.16605147       1.72545261      -0.00000175      -0.00000793      -0.00001657      -0.01288229       0.01493342       0.00508500      -0.00025052       0.00029041       0.00009889
Na       5.21730474       5.21730472       3.25407847       0.00000037       0.00000037       0.00000669       0.00815371       0.00815371       0.01422296       0.00015856       0.00015856       0.00027659
Na       4.60175960       4.60175960      -0.46105608       0.00002983       0.00002983       0.00000992       0.00921171       0.00921170      -0.00843468       0.00017914       0.00017914      -0.00016403
Na       1.27931391       3.71326345      -0.42809127      -0.00001605      -0.00000082       0.00003325      -0.01292263       0.00182092      -0.01115625      -0.00025131       0.00003541      -0.00021695
Na       3.71326346       1.27931393      -0.42809136      -0.00000082      -0.00001605       0.00003325       0.00182092      -0.01292263      -0.01115625       0.00003541      -0.00025131      -0.00021695
Na       0.77615113       0.77615103       1.66281036       0.00001069       0.00001069       0.00000545      -0.01115402      -0.01115402       0.00943217      -0.00021691      -0.00021691       0.00018343
8
Properties=species:S:1:pos:R:3:REF_forces:R:3:forces_eV_A:R:3:forces_Ha_Bohr:R:3 REF_energy=-444.669024738167 charge=0 energy_eV=-35293.31412405939 pbc="F F F"
Na       3.69753322       0.49164214       3.68789131      -0.00000603      -0.00003228       0.00000505       0.00932901      -0.01160135       0.00818827       0.00018142      -0.00022561       0.00015924
Na       4.87293515       2.87506590       1.66437256      -0.00000057      -0.00001491      -0.00000197       0.00069497      -0.00100984      -0.00040414       0.00001352      -0.00001964      -0.00000786
Na       2.12108106       3.68146846       3.81457859      -0.00000717       0.00004117       0.00004808      -0.00519967       0.00257792       0.01176550      -0.00010112       0.00005013       0.00022880
Na       6.02496126       5.26608741      -0.36351318       0.00002274       0.00000855      -0.00000518       0.01606773       0.00287189      -0.00417656       0.00031247       0.00005585      -0.00008122
Na       3.29558062       6.09108941       1.76773297      -0.00000661       0.00002454      -0.00003681      -0.00068176       0.01256247       0.00203406      -0.00001326       0.00024430       0.00003956
Na       3.08355121       3.53199776      -1.37054880      -0.00002564       0.00001252       0.00003702      -0.00029740      -0.00047397      -0.01271338      -0.00000578      -0.00000922      -0.00024724
Na       1.90904349       1.12171450       0.67495388       0.00000919      -0.00001366      -0.00004778      -0.00517093      -0.01159593      -0.00345143      -0.00010056      -0.00022550      -0.00006712
Na       0.43827271       4.30188302       0.80056745       0.00001409      -0.00002593       0.00000159      -0.01587316       0.00614420      -0.00278829      -0.00030868       0.00011949      -0.00005422
8
Properties=species:S:1:pos:R:3:REF_forces:R:3:forces_eV_A:R:3:forces_Ha_Bohr:R:3 REF_energy=-444.6672669289219 charge=0 energy_eV=-35293.312253222175 pbc="F F F"
Na       3.82738027       0.69841985       3.87874936       0.00001055      -0.00000592      -0.00005292       0.00555850      -0.00878616       0.01101007       0.00010810      -0.00017086       0.00021411
Na       1.03746353       2.52236918       2.87271832       0.00001207       0.00004180      -0.00003824      -0.01350210       0.00004146       0.00552048      -0.00026257       0.00000081       0.00010736
Na       3.61618673       4.19224196       4.28500295       0.00003217      -0.00006879      -0.00003602      -0.00050336       0.00570527       0.00989482      -0.00000979       0.00011095       0.00019242
Na       3.11971210       0.45751413       0.47744517      -0.00003997      -0.00000159       0.00003195      -0.00196958      -0.01285308      -0.00789525      -0.00003830      -0.00024995      -0.00015354
Na       6.28055257       5.16732390       2.15329334       0.00004954       0.00008704       0.00004432       0.00890400       0.01253863      -0.00274589       0.00017316       0.00024384      -0.00005340
Na       3.50328425       4.03449807       0.71503456      -0.00004193      -0.00005669      -0.00004706      -0.00167141      -0.00035112      -0.00040336      -0.00003250      -0.00000683      -0.00000784
Na       6.12421697       1.70282020       1.40291447      -0.00005238       0.00002199       0.00004933       0.01077247      -0.00476992      -0.00256002       0.00020949      -0.00009276      -0.00004978
Na       0.70955003       2.83870881      -0.67753377       0.00002994      -0.00001784       0.00004864      -0.00718411       0.00722386      -0.01341521      -0.00013971       0.00014048      -0.00026088
8
Properties=species:S:1:pos:R:3:REF_forces:R:3:forces_eV_A:R:3:forces_Ha_Bohr:R:3 REF_energy=-444.11095402398405 charge=0 energy_eV=-35292.70624694777 pbc="F F F"
Na       1.34681320       4.30423523       3.22246807      -0.00000272      -0.00000746       0.00001917      -0.00642111      -0.00201460       0.00107683      -0.00012487      -0.00003918       0.00002094
Na       2.59811815       0.12736972      -1.59548817      -0.00000253      -0.00000090      -0.00001410      -0.00795505      -0.01160815      -0.00597957      -0.00015470      -0.00022574      -0.00011628
Na       4.44408377       5.55928539       2.91624958      -0.00000430      -0.00000420      -0.00000549       0.00632631       0.00351257      -0.00015845       0.00012303       0.00006831      -0.00000308
Na       2.32277124       6.89844827       5.33515516      -0.00000501       0.00000670      -0.00000750      -0.00388982       0.01194536       0.01273136      -0.00007564       0.00023230       0.00024759
Na       6.57702600       4.14280285       0.41966718       0.00000657      -0.00000462       0.00000419       0.01187204       0.00585957      -0.00087783       0.00023087       0.00011395      -0.00001707
Na       3.51667273       2.81023986       0.63724324       0.00000429       0.00000997      -0.00000648      -0.00080500       0.00026561       0.00023155      -0.00001565       0.00000517       0.00000450
Na       5.63584254       1.35583876      -1.89385947       0.00000290      -0.00000293       0.00000011       0.01310442      -0.00238517      -0.00874601       0.00025484      -0.00004638      -0.00017008
Na       0.40391314       1.64702070       1.02552415       0.00000080       0.00000344       0.00001010      -0.01244454      -0.00540921       0.00167046      -0.00024201      -0.00010519       0.00003249
8
Properties=species:S:1:pos:R:3:REF_forces:R:3:forces_eV_A:R:3:forces_Ha_Bohr:R:3 REF_energy=-444.03335237900416 charge=0 energy_eV=-35292.62501641618 pbc="F F F"
Na       4.81015290       4.46862767       0.53357412       0.00004476      -0.00003604      -0.00005343       0.01067731       0.00162248      -0.00938667       0.00020764       0.00003155      -0.00018254
Na       1.84052883       3.23473804       1.39046803       0.00003789       0.00002183      -0.00004100      -0.01334962       0.01257668      -0.00053301      -0.00025961       0.00024458      -0.00001037
Na       6.32906271       5.22203284       6.72607099      -0.00011312      -0.00003613      -0.00000958       0.00247688      -0.00268427       0.01507277       0.00004817      -0.00005220       0.00029312
Na       1.19859892      -0.00287185       0.30288405       0.00002817      -0.00002610       0.00013200      -0.00660630      -0.01483846      -0.00119875      -0.00012847      -0.00028856      -0.00002331
Na       3.05451140       2.05512011      -1.65130880      -0.00007665       0.00005868      -0.00014918       0.00579332       0.00059577      -0.01893057       0.00011266       0.00001159      -0.00036814
Na       1.41616218       1.14417464       3.93777028      -0.00005021      -0.00004353       0.00002266      -0.00509227      -0.00881319       0.01367377      -0.00009903      -0.00017139       0.00026591
Na       6.27364074       5.96501056       3.55760148      -0.00000519       0.00001284       0.00003354       0.00474251       0.01066228      -0.00665618       0.00009223       0.00020735      -0.00012944
Na       3.81115332       3.75019039       4.20568455       0.00013434       0.00004845       0.00006500       0.00139035       0.00004556       0.00649936       0.00002704       0.00000089       0.00012639
8
Properties=species:S:1:pos:R:3:REF_forces:R:3:forces_eV_A:R:3:forces_Ha_Bohr:R:3 REF_energy=-444.0155330360692 charge=0 energy_eV=-35292.60773832894 pbc="F F F"
Na       2.64767634       4.11647853       0.84037272      -0.00004449       0.00003815      -0.00000396      -0.00465673       0.00110079      -0.00893565      -0.00009056       0.00002141      -0.00017377
Na       3.61363319       2.28844654       3.53045367       0.00001039       0.00000489       0.00007102      -0.00055781       0.00275224      -0.00264175      -0.00001085       0.00005352      -0.00005137
Na       4.56562840       0.42027010       6.20567737      -0.00004792      -0.00000022       0.00001725       0.00609605      -0.00336999       0.01305469       0.00011855      -0.00006554       0.00025387
Na       5.69977499       9.08368361       2.80712098       0.00002247      -0.00002954       0.00002994      -0.00251595       0.00973164      -0.01096683      -0.00004893       0.00018925      -0.00021327
Na       4.62877718       5.64827407       3.13018920       0.00002092      -0.00001881      -0.00003079      -0.00171573      -0.00159816      -0.00161592      -0.00003337      -0.00003108      -0.00003142
Na       2.62769835      -1.15322448       4.01537902       0.00007118      -0.00001635      -0.00001788      -0.00975326      -0.00996672      -0.01006129      -0.00018967      -0.00019382      -0.00019566
Na       6.59959615       7.22535546       5.40815465       0.00000313       0.00000280      -0.00001488       0.00708753       0.00205627       0.01136517       0.00013783       0.00003999       0.00022102
Na       5.75623645       3.80356278       6.08702731      -0.00003568       0.00001908      -0.00005069       0.00536256      -0.00081564       0.00957510       0.00010429      -0.00001586       0.00018621
8
Properties=species:S:1:pos:R:3:REF_forces:R:3:forces_eV_A:R:3:forces_Ha_Bohr:R:3 REF_energy=-444.01524459883103 charge=0 energy_eV=-35292.605550778404 pbc="F F F"
Na       2.88406362      -0.32137745       1.68487599      -0.00027400      -0.00001636       0.00036144      -0.00389299      -0.00886403      -0.01183730      -0.00007571      -0.00017238      -0.00023020
Na       3.86007566       8.74346884       0.88982395       0.00006865       0.00034773       0.00038506       0.00041863       0.01430079       0.00703791       0.00000814       0.00027811       0.00013687
Na       4.29198194       5.47103030       2.34683001      -0.00028216      -0.00011827       0.00014265      -0.00214205      -0.00172668       0.00358704      -0.00004166      -0.00003358       0.00006976
Na       2.62281346      -0.92068099       4.94360989       0.00002015       0.00035168      -0.00034487      -0.00133092      -0.00404043       0.01437502      -0.00002588      -0.00007857       0.00027955
Na       3.86542022       2.23201443       3.70056722       0.00018831      -0.00010637       0.00014865      -0.00133898       0.00289387       0.00180277      -0.00002604       0.00005628       0.00003506
Na       3.68874914       5.98730182      -0.95640853      -0.00023764      -0.00022996      -0.00034923      -0.00180391      -0.00136074      -0.01560684      -0.00003508      -0.00002646      -0.00030350
Na       4.43312739       4.91791581       5.69143671       0.00000863      -0.00004440      -0.00016924       0.00296346       0.00430729       0.01098958       0.00005763       0.00008376       0.00021371
Na       4.17583184       2.59634788       0.06685777       0.00050806      -0.00018406      -0.00017446       0.00703818      -0.00609762      -0.01144259       0.00013687      -0.00011858      -0.00022252
8
Properties=species:S:1:pos:R:3:REF_forces:R:3:forces_eV_A:R:3:forces_Ha_Bohr:R:3 REF_energy=-443.97941404877207 charge=0 energy_eV=-35292.577966868506 pbc="F F F"
Na       3.66295106       0.20954840       5.15140018       0.00026225      -0.00002754       0.00003336       0.00111061      -0.00002869      -0.00067601       0.00002160      -0.00000056      -0.00001315
Na       0.60000862       0.20977280       3.65667154       0.00022088       0.00000692      -0.00013638      -0.00588667       0.00000824       0.00672573      -0.00011448       0.00000016       0.00013079
Na       6.84789105       0.20976250       4.57705313       0.00007673       0.00000471      -0.00012220       0.00848831       0.00000442      -0.00885880       0.00016507       0.00000009      -0.00017228
Na       4.22403419       0.20976181       1.96188935      -0.00011984       0.00000476       0.00019115       0.00829652       0.00000440      -0.00827209       0.00016134       0.00000009      -0.00016087
Na       0.79840366       0.20973977       0.39228285      -0.00011188       0.00000044      -0.00006996      -0.00793972       0.00000020      -0.01432379      -0.00015440       0.00000000      -0.00027855
Na       5.15049574       0.20977226       8.21698845      -0.00004772       0.00000707       0.00002822      -0.00715001       0.00000831       0.00633480      -0.00013905       0.00000016       0.00012319
Na       1.34266852       0.20974275       7.46890431      -0.00006781       0.00000327       0.00015665      -0.01210945       0.00000482       0.01215369      -0.00023549       0.00000009       0.00023635
Na       8.41337835       0.20973971       8.00378164      -0.00021260       0.00000038      -0.00008085       0.01424018       0.00000017       0.00783713       0.00027693       0.00000000       0.00015241
8
Properties=species:S:1:pos:R:3:REF_forces:R:3:forces_eV_A:R:3:forces_Ha_Bohr:R:3 REF_energy=-443.9636724261219 charge=0 energy_eV=-35292.554441155866 pbc="F F F"
Na     -25.20784579       4.60089130       6.42893815      -0.00000614       0.00004679       0.00012906      -0.00439265      -0.00321803       0.01814208      -0.00008542      -0.00006258       0.00035281
Na     -24.89434554       5.24557379       3.20366306      -0.00000951       0.00003273      -0.00002312      -0.00930273       0.00288789      -0.00925171      -0.00018091       0.00005616      -0.00017992
Na     -22.00259982       4.58448259       4.81861011       0.00001688      -0.00007222      -0.00009218       0.00182403       0.00026849       0.00143897       0.00003547       0.00000522       0.00002798
Na     -21.69945336       5.29600728       1.31145238      -0.00003153      -0.00002374      -0.00001735       0.00611960       0.00303641      -0.01754923       0.00011901       0.00005905      -0.00034128
Na     -19.23322148       3.95244325       6.69144931      -0.00000126       0.00001249      -0.00006735      -0.00732333      -0.00338084       0.01744760      -0.00014242      -0.00006575       0.00033930
Na     -18.91436560       4.66410480       3.17245227      -0.00003777      -0.00005543      -0.00000556      -0.00155470      -0.00012847      -0.00121913      -0.00003023      -0.00000250      -0.00002371
Na     -16.02677888       4.12858593       4.84173227      -0.00002670      -0.00003392       0.00016975       0.00982050      -0.00267698       0.00907344       0.00019098      -0.00005206       0.00017645
Na     -15.67307179       4.77556134       1.62258203       0.00009602       0.00009330      -0.00009326       0.00452605       0.00383474      -0.01749437       0.00008802       0.00007457      -0.00034021
8
Properties=species:S:1:pos:R:3:REF_forces:R:3:forces_eV_A:R:3:forces_Ha_Bohr:R:3 REF_energy=-442.9178339872686 charge=0 energy_eV=-35291.46450783731 pbc="F F F"
Na      16.53372367      -0.00000905      -0.00000905      -0.00002519       0.00000000       0.00000000      -0.00077319      -0.00000055      -0.00000055      -0.00001504      -0.00000001      -0.00000001
Na      19.95909616      -0.00000918      -0.00000918       0.00002085      -0.00000005      -0.00000005       0.00077032      -0.00000019      -0.00000019       0.00001498      -0.00000000      -0.00000000
Na      13.28825005      -0.00000516      -0.00000516       0.00000694       0.00000006       0.00000006       0.00202578       0.00000033       0.00000033       0.00003940       0.00000001       0.00000001
Na      23.20456652      -0.00000664      -0.00000664      -0.00004559       0.00000003       0.00000003      -0.00206729       0.00000008       0.00000008      -0.00004020       0.00000000       0.00000000
Na      26.67170492      -0.00000171      -0.00000171       0.00002458      -0.00000006      -0.00000006      -0.01063051      -0.00000008      -0.00000008      -0.00020673      -0.00000000      -0.00000000
Na       9.82099695       0.00000161       0.00000161      -0.00000194      -0.00000002      -0.00000002       0.01065522      -0.00000002      -0.00000002       0.00020721      -0.00000000      -0.00000000
Na       6.64787316       0.00001364       0.00001364       0.00001216      -0.00000001      -0.00000001      -0.01062930       0.00000021       0.00000021      -0.00020671       0.00000000       0.00000000
Na      29.84480880       0.00001648       0.00001648       0.00000819       0.00000005       0.00000005       0.01064904       0.00000024       0.00000024       0.00020709       0.00000000       0.00000000
