8
REF_energy=-35294.27241982181 charge=-1 Properties=species:S:1:pos:R:3:REF_forces:R:3
Na      5.08411818      5.00486667      3.54497454      0.00720091      0.00519553      0.01457962
Na      1.86374230      4.50788941      -1.76494509      -0.00528235      0.00186015      -0.01744384
Na      1.34905706      2.21859217      0.99141285      -0.00569229      -0.00408565      -0.00273843
Na      5.01068096      4.72052075      0.01303632      0.00576780      0.00420914      -0.00565713
Na      4.66731057      1.82559703      1.85829853      0.00483084      -0.00548591      0.00457982
Na      3.83983406      1.68532384      -1.58258830      -0.00005583      -0.00548416      -0.01766380
Na      2.30120065      3.10436955      4.28319552      -0.00056408      0.00104217      0.01887744
Na      2.06630450      5.53962780      1.61622106      -0.00470196      0.00556288      0.00356287
8
REF_energy=-35294.19900279483 charge=-1 Properties=species:S:1:pos:R:3:REF_forces:R:3
Na      4.18687157      3.00347238      2.64656999      0.00343261      0.00002745      0.00767423
Na      1.95993093      1.60830537      0.06324685      -0.00632046      -0.00927191      -0.00403483
Na      2.61345792      6.51989009      2.90768701      -0.00484186      0.01347531      0.00781217
Na      5.30051960      5.75381992      0.85368696      0.01110984      0.00428302      -0.00026413
Na      4.77771853      3.05361033      -1.17883686      0.00656582      -0.00267246      -0.01214469
Na      0.73471991      3.66162234      2.48905078      -0.00873263      -0.00216736      0.00657270
Na      5.14479545      0.06606459      0.73742301      0.00717034      -0.01354013      -0.00067558
Na      2.03733730      5.10157711      -0.49094372      -0.00712468      0.01022884      -0.00616511
8
REF_energy=-35294.18613540114 charge=-1 Properties=species:S:1:pos:R:3:REF_forces:R:3
Na      7.29795458      3.58031559      1.91097362      0.01474139      -0.00028420      0.00375059
Na      1.14860292      3.36770178      -2.35601383      -0.00897254      -0.00156059      -0.01266531
Na      1.60666500      1.69705573      0.67278403      -0.00455679      -0.00923844      -0.00018749
Na      4.48655791      5.61719256      2.25591420      0.00384379      0.00985234      0.00355908
Na      4.38355783      1.79097262      2.59396405      0.00211115      -0.01023964      0.00531355
Na      4.46410735      3.43652985      -0.56766439      0.00690296      -0.00026926      -0.00883913
Na      1.66092554      3.87092008      3.45995910      -0.00889629      -0.00019978      0.01139461
Na      1.71288913      5.51758215      0.33248220      -0.00482481      0.01134664      -0.00217621
8
REF_energy=-35294.173064058115 charge=-1 Properties=species:S:1:pos:R:3:REF_forces:R:3
Na      2.14461176      2.14461176      3.14362426      -0.00283734      -0.00283734      0.01203463
Na      5.46251796      2.79530690      2.57499789      0.00787232      -0.00689167      0.00686569
Na      2.79530690      5.46251796      2.57499788      -0.00689167      0.00787232      0.00686569
Na      6.20917681      6.20917682      2.04356697      0.00874749      0.00874749      0.00146267
Na      4.56807829      4.56807829      -0.62586732      0.00313512      0.00313512      -0.01216071
Na      1.25012354      3.91409069      -0.06283560      -0.00803759      0.00672620      -0.00670848
Na      3.91409070      1.25012354      -0.06283560      0.00672620      -0.00803759      -0.00670848
Na      0.50133482      0.50133482      0.48131124      -0.00869485      -0.00869485      -0.00164507
8
REF_energy=-35294.16836176734 charge=-1 Properties=species:S:1:pos:R:3:REF_forces:R:3
Na      19.02356069      5.98957169      0.92875794      0.00642661      -0.00400713      0.00801067
Na      15.77877428      4.76277448      0.79882266      -0.00785837      -0.00942737      0.00593136
Na      16.36800075      8.26476784      -0.09243844      -0.00904450      0.00873998      0.00614574
Na      19.70894303      9.01244150      -0.51844140      0.00642624      0.01014523      0.00693747
Na      17.56806250      8.66695066      -3.30331980      -0.00575646      0.00860286      -0.00975910
Na      21.12666571      8.56171498      -3.78487260      0.01072152      0.00312440      -0.00864672
Na      16.34346192      5.56715182      -2.53200704      -0.00532307      -0.00681548      -0.00781067
Na      19.76377867      5.65721509      -2.39631684      0.00336483      -0.01013850      -0.00203581
8
REF_energy=-35294.066513712794 charge=-1 Properties=species:S:1:pos:R:3:REF_forces:R:3
Na      17.55518371      1.48584581      1.17610045      -0.01273877      -0.00099968      0.00147539
Na      20.24843718      2.35346681      3.35000614      0.00329369      0.00276104      0.01294973
Na      22.21524486      2.99582629      -1.96197677      -0.00072040      0.00660068      -0.01163773
Na      20.10503619      -0.97717696      1.53829776      0.00268683      -0.01049255      0.00531083
Na      19.83451284      3.99183039      0.35385346      -0.00186261      0.01301461      -0.00068186
Na      22.61021917      1.33538181      1.06869197      0.00012910      -0.00004016      0.00225316
Na      19.68963721      0.67307495      -1.45060131      -0.00234971      -0.00638696      -0.01096272
Na      25.46979778      2.17128125      -0.87685290      0.01185795      -0.00257815      0.00119764
8
REF_energy=-35293.79773156024 charge=-1 Properties=species:S:1:pos:R:3:REF_forces:R:3
Na      1.56291640      6.05606227      6.95377673      -0.00097153      0.00941529      0.00305923
Na      1.99853640      2.87513839      6.05547879      0.00012661      -0.00034243      0.00002945
Na      3.28127392      -2.99920535      6.35227679      0.00427013      0.00079459      0.01428146
Na      2.26955721      -2.52399924      2.85081707      -0.00423326      0.00304824      -0.01359874
Na      3.98924752      0.13154166      4.66523292      0.00759107      0.00648737      -0.00223819
Na      0.22603780      -4.08115541      5.15082735      -0.00764988      -0.01270895      0.00082841
Na      5.56269381      -2.98962698      3.75583489      0.01231877      -0.00940338      -0.00521113
Na      0.76408573      -0.52871312      5.50830271      -0.01048290      0.00278128      0.00287879
8
REF_energy=-35293.76340004294 charge=-1 Properties=species:S:1:pos:R:3:REF_forces:R:3
Na      7.26643785      4.03699693      -1.05435416      0.01425651      -0.00078997      -0.00115911
Na      1.21954906      4.37304851      -1.55174475      -0.00804981      0.00143591      -0.00394619
Na      0.38934979      3.51565567      1.80202409      -0.00707728      0.00187275      -0.00571346
Na      3.26650955      2.82614321      3.97057038      0.00751111      -0.00210862      0.00490067
Na      6.45813513      3.13575916      2.40874558      0.00629741      -0.00180027      0.00746967
Na      3.86589373      3.76774615      0.39780474      -0.00026690      -0.00050085      -0.00028320
Na      -0.02015481      2.62906334      5.16465516      -0.01113048      -0.00335384      0.01337745
Na      4.53368257      4.67429303      -3.12015261      -0.00200315      0.00464909      -0.01407712
8
REF_energy=-35293.738700757654 charge=-1 Properties=species:S:1:pos:R:3:REF_forces:R:3
Na      4.28935421      0.37929738      0.77282817      0.01077954      -0.00772096      -0.00028082
Na      1.04271748      2.13005471      0.93255534      -0.00969138      0.00919079      -0.00153730
Na      6.60495989      3.05264082      1.40089989      0.01143745      -0.00412841      -0.00346306
Na      1.56689260      5.67435116      1.50205784      -0.01328932      -0.00204461      -0.00075079
Na      3.58923991      3.27620582      2.90517831      -0.00007619      -0.00183815      0.02173331
Na      5.16673102      6.29269853      1.32652349      0.01031974      0.00180247      -0.00357796
Na      1.46895590      -0.75983214      -1.02569530      -0.00791121      -0.01307943      -0.01027580
Na      2.84152228      8.83520966      0.50968526      -0.00329896      0.01654646      -0.00380375
8
REF_energy=-35293.72179100373 charge=-1 Properties=species:S:1:pos:R:3:REF_forces:R:3
Na      8.06603450      2.89152469      5.07702317      0.00564098      -0.00009444      0.00974212
Na      2.77056401      7.24180854      6.34570427      -0.01469893      0.00600168      -0.00066828
Na      5.29445725      8.04400851      8.54877448      0.00756345      0.00362673      0.01081370
Na      6.68077044      0.61884041      2.70763929      0.00681163      -0.01586036      0.00019285
Na      6.06765651      5.95913649      5.67875124      0.00745166      0.00257741      0.00297047
Na      3.05673802      5.30373835      3.39162253      -0.01085054      -0.00391708      -0.00071128
Na      3.83959690      2.18070159      1.33077951      -0.01198579      -0.00297990      -0.00995978
Na      6.20335097      4.25984314      2.64723401      0.01033121      0.00999539      -0.01095988
8
REF_energy=-35293.700568163484 charge=-1 Properties=species:S:1:pos:R:3:REF_forces:R:3
Na      6.20145163      3.95802908      0.06176357      0.00994715      0.01155768      0.00211012
Na      0.38949605      3.37153959      2.08004575      -0.00993564      -0.01140426      -0.00202650
Na      3.14913369      2.04275323      0.36769549      -0.00521174      0.00084732      0.00197587
Na      3.40973929      8.46616609      3.28071377      0.01199022      0.01089380      0.00122869
Na      6.04068909      0.76761168      -1.37964596      0.01343101      -0.00298953      -0.00607808
Na      3.44269352      5.29226566      1.77605290      0.00513391      -0.00092777      -0.00204128
Na      0.54515095      6.56228593      3.51901485      -0.01356361      0.00288141      0.00601837
Na      3.16962175      -1.12829193      -1.13968798      -0.01184475      -0.01088954      -0.00121784
8
REF_energy=-35293.70147256111 charge=-1 Properties=species:S:1:pos:R:3:REF_forces:R:3
Na      8.95394147      7.61929966      3.15048168      0.00983268      0.00816483      -0.00071654
Na      6.66415661      5.43177205      1.74931054      0.00177058      -0.00026733      -0.00308851
Na      6.36211860      6.17383638      5.19347866      0.00017816      0.00031324      0.00140828
Na      3.62852927      4.46392498      6.64855425      -0.00155194      0.00016011      0.00304925
Na      5.53722226      6.50996900      8.68662151      0.00401766      0.00570009      0.00999587
Na      3.93181895      3.71974865      3.20437412      -0.00022376      -0.00012522      -0.00117093
Na      4.77081318      3.36672456      -0.28356653      -0.00424659      -0.00572521      -0.01019842
Na      1.32572944      2.29316968      5.24247248      -0.00978841      -0.00830789      0.00079562
8
REF_energy=-35293.690598183755 charge=-1 Properties=species:S:1:pos:R:3:REF_forces:R:3
Na      6.97715268      2.24338190      5.54917350      0.00858101      -0.00943119      0.00959027
Na      1.56277199      7.39909905      -0.38045862      -0.00078384      0.01066422      0.00130463
Na      2.64299760      1.55754793      -0.00240952      0.00476356      -0.01001231      0.00460688
Na      0.40493411      1.22588127      -2.86391546      -0.00789012      -0.00807411      -0.01090214
Na      5.55296165      5.08692856      4.21078708      -0.00151794      0.01798819      0.00048353
Na      4.78089447      1.92287186      2.73944790      -0.00288777      -0.01108772      -0.00523988
Na      3.29513457      4.82713249      1.34614712      0.00220346      0.00497598      0.00358732
Na      0.96540121      4.34394417      -1.63916655      -0.00273210      0.00331016      -0.00287166
8
REF_energy=-35293.68985376187 charge=-1 Properties=species:S:1:pos:R:3:REF_forces:R:3
Na      3.69406743      0.20944554      5.11386631      0.00007931      -0.00001230      -0.00014279
Na      0.35452067      0.20977023      3.85263526      -0.00666532      0.00000212      0.00332266
Na      6.96272921      0.20974137      4.49236745      0.00296087      0.00000099      -0.00724492
Na      4.31689888      0.20974111      1.84557307      0.00728800      0.00000106      -0.00305373
Na      1.03496315      0.20981317      0.47288116      -0.00754420      0.00000210      -0.01497494
Na      4.95623890      0.20977115      8.45329129      -0.00335804      0.00000211      0.00661181
Na      1.38424524      0.20974513      7.42444165      -0.00793105      0.00000427      0.00801958
Na      8.33616771      0.20981229      7.77391527      0.01504714      0.00000212      0.00758820
8
REF_energy=-35293.65315782004 charge=-1 Properties=species:S:1:pos:R:3:REF_forces:R:3
Na      3.59243837      7.05785590      4.80591145      -0.00991846      0.01273742      0.00658318
Na      2.01481997      5.85295236      1.67098364      -0.00870719      0.00551554      -0.00132570
Na      7.83682162      2.92447561      3.74963653      0.00736086      -0.01049833      -0.00619913
Na      3.61612414      3.13896960      -0.20590453      0.01457989      -0.00644695      0.00498958
Na      4.95416577      4.39421967      2.71912295      0.00016157      -0.00443965      -0.00465954
Na      6.51103862      5.49262454      5.73090802      0.00823006      0.00371720      0.01341813
Na      1.92560629      2.10551547      -3.19701308      0.00155214      -0.01089866      -0.01296201
Na      0.52675526      4.63545216      -1.36551020      -0.01393443      0.00965434      -0.00102053
8
REF_energy=-35293.6527770239 charge=-1 Properties=species:S:1:pos:R:3:REF_forces:R:3
Na      3.11596923      2.38836576      5.26326204      -0.00725733      -0.00791331      0.00254987
Na      2.35099308      4.61374645      -0.65126858      0.00289002      0.00905431      -0.01291527
Na      1.34188851      2.37309332      1.97510396      -0.00947987      -0.00980280      0.00381370
Na      6.36773263      6.73712797      2.52096368      0.00435932      0.00520328      -0.00544251
Na      7.94970471      5.17447062      8.32725551      0.01216937      0.00829027      0.00564029
Na      5.26348721      2.87507609      8.13142750      -0.00519572      -0.00818432      0.00888425
Na      3.88458237      4.50595718      2.48847345      0.00303898      0.00158978      0.00195362
Na      5.95547277      4.89236098      5.42277423      -0.00047016      0.00155310      -0.00454958
8
REF_energy=-35293.629457355884 charge=-1 Properties=species:S:1:pos:R:3:REF_forces:R:3
Na      4.81375826      0.35520864      6.98217891      -0.00877147      -0.00596727      0.01267595
Na      2.44246809      -1.37290819      4.99994444      0.01336502      -0.00318798      0.00157893
Na      7.72539722      1.83002109      5.67430936      0.01710723      0.00343813      0.00156016
Na      -1.14784151      -0.60891976      4.91669017      -0.00597283      -0.00140072      0.00006001
Na      -0.11272043      -3.67075583      3.99172025      -0.00403257      -0.01184553      -0.00600769
Na      4.74885235      1.68206928      3.79342515      -0.00817573      0.00117203      -0.01391350
Na      1.52761031      1.89281217      5.23488017      0.00925780      0.00883112      0.00026189
Na      -1.94406629      2.52712936      5.83067604      -0.00982075      0.00784037      0.00396108
8
REF_energy=-35293.56727618229 charge=-1 Properties=species:S:1:pos:R:3:REF_forces:R:3
Na      8.48946266      8.41353747      2.10009946      0.00464565      0.00603255      0.00076091
Na      0.65937722      3.35518772      -2.29798375      -0.00249497      0.00647064      -0.00921996
Na      -1.20449114      0.34341779      -1.74161673      -0.00812542      -0.01127324      0.00038594
Na      6.13230520      6.04922800      1.70707148      -0.00052862      -0.00192932      0.00076598
Na      2.49713947      0.06220512      3.22425770      -0.00437926      -0.01140354      0.00666243
Na      3.27827509      4.81184126      -0.46177377      0.00503029      0.01047604      -0.00537727
Na      1.44090944      1.57698641      0.41113417      -0.00014399      -0.00042478      0.00058362
Na      4.17362700      3.07283616      2.33005973      0.00491923      -0.00002670      0.00515480
8
REF_energy=-35293.55732870639 charge=-1 Properties=species:S:1:pos:R:3:REF_forces:R:3
Na      4.77460806      2.91966133      4.62451798      0.00636307      -0.00635725      0.00792953
Na      1.63937515      6.22028672      0.73368753      -0.00748396      0.00612113      -0.01123157
Na      5.52061052      -1.99053025      -3.30173912      0.00141705      -0.00643359      -0.00744109
Na      2.54354006      3.71090932      -1.58609598      -0.00343469      0.00124651      -0.00745473
Na      3.76057222      3.10147064      1.38290453      0.00155581      -0.00443424      -0.00490597
Na      4.49358393      0.60813660      -1.41257080      0.00323724      -0.00067250      0.00842813
Na      2.84900761      5.69668189      3.91617051      0.00334119      -0.00112423      0.00899243
Na      0.94825634      8.55355134      3.59406970      -0.00542812      0.01236929      0.00551570
8
REF_energy=-35293.53879135783 charge=-1 Properties=species:S:1:pos:R:3:REF_forces:R:3
Na      1.15671515      6.63569069      4.05422625      0.00186498      -0.00326651      -0.00260199
Na      3.08276630      0.81528421      -4.43235840      -0.00262930      -0.00333583      -0.01463553
Na      4.99715350      1.61581128      1.17071867      -0.00006318      0.00553932      0.01226597
Na      -0.19788087      8.90021573      6.10557384      -0.00341723      0.00646852      0.00638089
Na      7.37079918      -0.96438814      0.46350955      0.01071563      -0.00897301      0.00399750
Na      2.83760907      2.51145531      -1.29283053      -0.00826303      0.00839994      0.00038148
Na      5.24374000      -0.11029603      -2.01289226      0.00519121      -0.00739935      -0.00576232
Na      2.59594959      4.23460774      1.88856737      -0.00217265      0.00274511      0.00105474
8
REF_energy=-35293.51414263129 charge=-1 Properties=species:S:1:pos:R:3:REF_forces:R:3
Na      9.13436313      1.83618399      -1.93371803      0.00661555      -0.00300491      -0.00614644
Na      -0.83831848      2.17490218      -1.44347790      -0.01096219      -0.00493930      -0.00623872
Na      2.69085365      2.62537867      -0.66535389      0.00860481      -0.00305226      -0.00616160
Na      4.40568900      5.99796436      5.09842260      0.00919041      0.00381977      0.00725772
Na      1.15124724      5.45161426      4.20036259      -0.01116318      0.00513259      0.00893029
Na      6.32257540      2.75850573      -0.40094913      -0.00283273      0.00403773      0.00628098
Na      0.00617604      3.82942512      1.41259978      -0.00652671      0.00053056      -0.00005787
Na      3.88867428      4.20429606      2.03451296      0.00656920      -0.00270020      -0.00376365
8
REF_energy=-35293.48511246344 charge=-1 Properties=species:S:1:pos:R:3:REF_forces:R:3
Na      9.97305507      4.78045183      3.94971607      0.00595797      0.00106255      0.00322408
Na      1.42209854      4.41305097      -0.29834226      -0.00955036      -0.00313989      -0.00460581
Na      -1.53193384      -1.38861594      -0.48895747      -0.00541897      -0.00478017      -0.00060192
Na      4.38193754      6.00101480      0.85216198      0.00839791      0.00625099      0.00251863
Na      6.96226632      4.23852238      2.57052648      -0.00048914      -0.00138049      -0.00066778
Na      3.88075607      2.58224300      1.37951818      0.00414059      -0.01191136      0.00541410
Na      0.80047205      0.93193388      0.17366681      0.00168809      -0.00007245      0.00075768
Na      1.93549587      7.81000135      -0.82253844      -0.00544719      0.01276599      -0.00573633
8
REF_energy=-35293.470864935465 charge=-1 Properties=species:S:1:pos:R:3:REF_forces:R:3
Na      17.13248128      0.07500312      0.07500312      0.01589808      -0.00722789      -0.00722789
Na      18.68949855      2.24578989      2.24578989      0.01536203      0.00845471      0.00845471
Na      20.61981383      -0.09189897      -0.09189897      -0.00212882      -0.01926547      -0.01926547
Na      14.98483667      1.96748774      1.96748774      -0.01682670      0.00624910      0.00624910
Na      22.17884179      2.20335296      2.20335296      -0.01098579      0.02262757      0.02262757
Na      24.08995558      -0.12843167      -0.12843167      -0.01032889      -0.01331603      -0.01331603
Na      25.65910147      2.01917869      2.01917869      -0.01099847      0.00966470      0.00966470
Na      27.78393195      0.09867839      0.09867839      0.01988766      -0.00735087      -0.00735087
8
REF_energy=-35293.475132361076 charge=-1 Properties=species:S:1:pos:R:3:REF_forces:R:3
Na      8.06301266      3.27280927      -1.12409391      0.01415338      -0.00178990      -0.00308292
Na      6.93891143      5.88325877      0.98466442      0.00783613      0.00976585      0.00652435
Na      5.60265700      1.30548472      -2.42518233      0.00379441      -0.01190265      -0.00839330
Na      2.20865039      1.97547377      -1.59849497      -0.01387970      -0.00016192      0.00156283
Na      4.47906230      4.00497975      -0.23107798      -0.00316051      0.00371745      0.00227020
Na      3.67232269      6.82599441      1.99293439      -0.00861034      -0.00331389      -0.00286944
Na      3.43789071      9.61209715      4.11697198      0.00088358      -0.00330020      -0.00286828
Na      3.13446744      12.25473726      6.13011514      -0.00015710      0.00780795      0.00649439
8
REF_energy=-35293.474567071746 charge=-1 Properties=species:S:1:pos:R:3:REF_forces:R:3
Na      -2.86692346      -0.82971496      5.38734333      -0.01394201      -0.00317820      0.00254481
Na      -1.58364309      1.64338801      7.32388874      -0.00836317      0.00706460      0.01239711
Na      4.02471214      1.23915315      4.05624671      -0.00081108      -0.00586017      -0.00582724
Na      1.75595747      2.50798389      6.53389361      0.00727296      0.00733780      0.00460101
Na      -0.91792048      -2.32097378      2.82185539      0.00379735      -0.00950513      -0.01115359
Na      0.57461457      0.08746343      4.59735922      0.00483421      0.00053069      -0.00232979
Na      7.33489786      2.17869052      3.32014710      -0.00297508      -0.00023147      0.00116259
Na      10.46954011      3.03052051      2.55916227      0.00826756      0.00228579      -0.00138076
8
REF_energy=-35293.441664696446 charge=-1 Properties=species:S:1:pos:R:3:REF_forces:R:3
Na      2.78450221      3.83642458      2.31426238      0.00323355      -0.00616929      0.00415164
Na      5.09380658      8.48534871      -0.79695929      -0.00741208      0.01230688      -0.00950405
Na      -0.31972209      1.94060679      3.27624120      0.00385142      -0.00061160      0.00013722
Na      -1.92515355      -0.48428366      4.85298896      -0.00363706      -0.00550211      0.00318707
Na      2.17595607      7.00470178      -0.10671822      -0.00568040      0.00641507      -0.00605669
Na      5.51566275      5.65937994      1.34801010      0.00352288      -0.00554297      0.00516031
Na      -0.26148484      4.83378381      1.14193331      -0.00840720      0.00261321      -0.00212585
Na      8.30134084      7.46191187      0.40746951      0.01590305      -0.00223292      0.00363318
8
REF_energy=-35293.416213995944 charge=-1 Properties=species:S:1:pos:R:3:REF_forces:R:3
Na      5.77626176      3.12176033      2.72634436      0.00586007      -0.00757199      0.01165903
Na      2.61365686      2.01486605      1.71492145      -0.00136488      -0.00816174      0.00610010
Na      -0.70588324      0.89714825      0.60319688      0.00302273      -0.00122305      0.00322571
Na      9.98001603      8.20533267      1.08732039      0.00662755      0.00488861      -0.00088155
Na      4.20967191      4.88168192      0.19594596      0.00146839      0.00863353      -0.00681680
Na      1.05358241      3.77501950      -0.82078458      -0.00587875      0.00714083      -0.01127225
Na      -3.25697430      -1.18407104      0.83107826      -0.00679803      -0.00520354      -0.00009234
Na      7.50845325      6.03139939      1.32959613      -0.00304287      0.00133690      -0.00208584
8
REF_energy=-35293.4031110605 charge=-1 Properties=species:S:1:pos:R:3:REF_forces:R:3
Na      8.23143465      10.02896134      0.56217028      0.00866451      0.00378915      0.00036453
Na      5.17838665      8.95328003      -0.20187125      -0.00306577      -0.00592613      0.00551482
Na      1.90526996      7.18730558      0.01554637      0.00491118      -0.00078633      0.00388465
Na      1.39148921      3.06099299      5.59646388      -0.00222823      -0.00551336      0.00761645
Na      -0.53777342      7.71307351      -2.57919612      -0.01082057      0.00156805      -0.01015365
Na      -1.19183837      5.64292734      0.13856847      -0.01306464      -0.00845173      0.00355989
Na      1.09143023      4.87630463      2.82586269      0.00774558      0.00482989      -0.00099472
Na      2.57780878      9.25122844      -2.68616808      0.00721259      0.01011175      -0.00938644
8
REF_energy=-35293.37684061699 charge=-1 Properties=species:S:1:pos:R:3:REF_forces:R:3
Na      15.04737532      -3.11774998      1.74002547      -0.01189854      -0.00817528      0.00392557
Na      15.65967109      6.72744918      -1.31873346      0.00728871      0.01595479      0.00691816
Na      15.56264141      -0.33293447      -0.17960047      0.00641514      0.00327647      0.00252860
Na      21.70708486      -3.00199242      0.82773693      0.00937459      -0.00123472      0.00015603
Na      15.78992424      3.23703567      -0.83827321      0.00805006      -0.00772767      0.00985214
Na      18.45464834      -2.62795952      1.05159867      -0.00044050      0.00414628      -0.00216787
Na      13.99881870      1.22365565      -3.00186715      -0.00812519      -0.01012791      -0.00737062
Na      13.95748515      4.70130233      -3.50429450      -0.01065687      0.00487620      -0.01448060
8
REF_energy=-35293.16334465376 charge=-1 Properties=species:S:1:pos:R:3:REF_forces:R:3
Na      -2.00259708      5.35937793      3.67498906      -0.00179389      -0.00905429      0.00678137
Na      3.85852778      7.43983290      1.03861847      -0.00383003      -0.00150851      0.00146088
Na      8.89608068      2.97893393      -0.14933910      0.00472671      -0.00830347      -0.00126096
Na      -3.11124643      7.89025612      1.48907497      0.00147129      0.00026136      -0.00033667
Na      0.56274386      6.73256844      1.95418192      0.00291621      0.00181724      -0.00181714
Na      -5.14351565      9.91244339      -0.06167644      -0.00654983      0.00614191      -0.00440394
Na      6.66626263      9.23943943      0.48911099      0.00437508      0.01119567      -0.00200034
Na      7.27614632      5.77588717      0.27211082      -0.00103460      -0.00074509      0.00084701
8
REF_energy=-35293.15265585806 charge=-1 Properties=species:S:1:pos:R:3:REF_forces:R:3
Na      0.81179693      3.20567091      -4.42560886      -0.01079220      0.00150021      -0.00320560
Na      3.25286151      5.15031350      11.76921915      -0.00004235      0.00105110      0.00861043
Na      2.68572168      3.37003257      -1.64628004      0.00346130      -0.00106475      0.00241801
Na      6.93657421      2.38261283      -6.93606869      0.00854748      -0.00177289      -0.00524721
Na      3.33213486      4.17316254      5.08647517      0.00208335      -0.00047715      -0.00268621
Na      4.23916942      2.82139657      -5.17252238      0.00006011      0.00066226      0.00264893
Na      3.29450586      3.72884475      1.72838264      -0.00344020      0.00092229      0.00313278
Na      3.30309503      4.66563401      8.52040734      0.00016109      -0.00066638      -0.00544114
8
REF_energy=-35293.12680196645 charge=-1 Properties=species:S:1:pos:R:3:REF_forces:R:3
Na      6.94563274      -1.79636670      7.17460084      -0.00296239      0.00118926      -0.00118170
Na      -2.31214846      0.73683142      3.81280231      0.00304122      -0.00106699      0.00142528
Na      3.86378112      -0.96661335      6.07253488      0.00198722      -0.00065968      0.00052500
Na      10.12377241      -2.62651831      8.29976927      -0.00611810      0.00105849      -0.00176696
Na      13.10950977      -3.42029972      9.37310406      0.00731612      -0.00220218      0.00204579
Na      0.75190698      -0.11710713      4.94205717      -0.00132218      0.00051322      -0.00061701
Na      -5.45827787      1.62752801      2.65051113      0.00553340      -0.00137547      0.00178894
Na      -8.41432613      2.47737006      1.54021323      -0.00742586      0.00256825      -0.00220580
8
REF_energy=0.0 charge=-1 Properties=species:S:1:pos:R:3:REF_forces:R:3
