8
Properties=species:S:1:pos:R:3 energy=-35306.32797791549 confid=N/A element=Na charge=0 pbc="F F F"
Na       5.27066866       6.06614200       3.57139735
Na       6.71319801       5.67617127       6.86892918
Na       6.01957099       2.64012203       5.72457570
Na       2.95959300       3.41097263       3.88836004
Na       6.30868911       3.16267002       2.28008278
Na       2.14244775       6.46994486       5.06604419
Na       4.94417752       8.42114631       5.95066919
Na       3.50600923       4.13676878       7.35935311
8
Properties=species:S:1:pos:R:3 energy=-35306.443862691405 confid=N/A element=Na charge=0 pbc="F F F"
Na       7.94849810       5.78001156       5.24325492
Na       5.41089716       6.06216359       2.98360808
Na       4.81995356       5.94485174       6.69032826
Na       2.30069794       5.76583968       4.42988925
Na       7.05109388       2.88805779       3.31555394
Na       3.74165885       2.96512487       2.77268980
Na       3.26503074       2.81185471       6.19648099
Na       6.54982223       2.81139129       6.69171971
8
Properties=species:S:1:pos:R:3 energy=-35306.48819025693 confid=N/A element=Na charge=0 pbc="F F F"
Na       6.16345999       6.90306805       6.22174304
Na       3.02054933       5.05824204       3.45781603
Na       6.64258403       4.72489217       3.34609389
Na       2.77960271       7.52836886       5.90076971
Na       6.96814384       3.67202641       6.70080371
Na       3.58388736       4.45930768       6.93406638
Na       5.18504279       7.74438590       2.98490578
Na       4.50581990       2.17295085       4.39324132
8
Properties=species:S:1:pos:R:3 energy=-35306.36672619448 confid=N/A element=Na charge=0 pbc="F F F"
Na       6.91152350       7.35899553       5.03011416
Na       3.96864046       3.04698752       2.94603872
Na       4.51894089       4.32011645       6.37786577
Na       4.67167469       6.44481511       2.65987310
Na       7.03995048       4.10261286       3.74485210
Na       1.76031431       5.04664321       4.77386561
Na       7.71296363       4.48023208       7.21843187
Na       3.61463211       7.74777651       5.86343033
8
Properties=species:S:1:pos:R:3 energy=-35306.44946167898 confid=N/A element=Na charge=0 pbc="F F F"
Na       3.82820143       6.02742349       2.13590194
Na       6.77902588       4.09427587       2.93054013
Na       5.97618765       7.33174163       4.50610623
Na       3.65746976       2.93487700       3.93036591
Na       7.05564175       4.42932865       6.16318650
Na       2.64600413       5.95910545       5.31820865
Na       3.98916908       3.27186342       7.20117631
Na       4.93172704       6.77976523       7.69230206
8
Properties=species:S:1:pos:R:3 energy=-35306.477382737954 confid=N/A element=Na charge=0 pbc="F F F"
Na       6.95608073       4.27972626       2.62207869
Na       7.09433831       6.77621210       5.08347996
Na       3.65030244       6.79950270       5.95354102
Na       6.61812287       2.96625848       5.70151385
Na       3.69748250       3.70424312       3.75909533
Na       3.30681198       3.42131430       7.02938457
Na       6.19787350       5.45010012       7.99574222
Na       4.42904698       6.89341300       2.67253559
8
Properties=species:S:1:pos:R:3 energy=-35306.48604055743 confid=N/A element=Na charge=0 pbc="F F F"
Na       6.25455263       4.85895609       6.50311235
Na       3.91625146       2.94223541       2.89337163
Na       7.07455187       2.30593475       4.24860433
Na       5.16243031       7.64925778       5.04953830
Na       2.79562968       5.09817229       5.65924179
Na       3.96661102       2.04495665       6.29269212
Na       6.59771475       5.35398870       2.88029653
Na       3.15967513       6.23463296       2.33079557
8
Properties=species:S:1:pos:R:3 energy=-35306.487523768454 confid=N/A element=Na charge=0 pbc="F F F"
Na       8.21928531       6.88914771       5.21975914
Na       6.88936858       3.66696854       6.03640346
Na       5.53612265       6.43014285       7.70400603
Na       3.30544772       4.71364430       5.85194664
Na       6.91539552       5.05716745       2.75664208
Na       3.45308393       5.51059092       2.43106952
Na       4.89282428       7.68114723       4.51123800
Na       4.82297737       2.40341857       3.71258686
8
Properties=species:S:1:pos:R:3 energy=-35306.07404531561 confid=N/A element=Na charge=0 pbc="F F F"
Na       7.45472323       6.09557893       5.39004783
Na       4.83378921       6.50224159       7.42168603
Na       3.14847341       7.61454520       4.84166761
Na       5.69416886       7.26256264       2.79916886
Na       6.46408227       3.02316766       4.68179195
Na       3.82957813       3.39396923       6.70579747
Na       2.15736259       4.54622915       4.13484436
Na       4.70210180       4.19178529       2.09088435
8
Properties=species:S:1:pos:R:3 energy=-35306.481434159585 confid=N/A element=Na charge=0 pbc="F F F"
Na       4.43395025       3.12404293       6.54091674
Na       6.84841367       2.64786568       4.11725769
Na       3.02058170       6.87018210       3.14536172
Na       7.20728949       5.37816553       6.54599879
Na       3.86409728       3.44758280       2.88473670
Na       6.25704121       6.05991830       3.22611833
Na       4.17376551       6.63533274       6.38291436
Na       1.58427151       4.45871238       5.36471209
